<configuration>

<input>
 <net-file value="Szenario3.net.xml" />
 <route-files value="Szenario3.rou.xml" />
</input>

</configuration>
