<?xml version="1.0" encoding="UTF-8"?>

<!-- generated on 2021-07-06 22:35:04 by Eclipse SUMO duarouter Version 1.9.2
<configuration xmlns:xsi="http://www.w3.org/2001/XMLSchema-instance" xsi:noNamespaceSchemaLocation="http://sumo.dlr.de/xsd/duarouterConfiguration.xsd">

    <input>
        <net-file value="kassberg.net.xml"/>
        <route-files value="trips.trips.xml"/>
    </input>

    <output>
        <output-file value="rndRoute.rou.xml"/>
        <alternatives-output value="rndRoute.rou.alt.xml"/>
    </output>

    <time>
        <begin value="0"/>
        <end value="1000"/>
    </time>

    <report>
        <no-warnings value="true"/>
        <ignore-errors value="true"/>
        <no-step-log value="true"/>
    </report>

</configuration>
-->

<routes xmlns:xsi="http://www.w3.org/2001/XMLSchema-instance" xsi:noNamespaceSchemaLocation="http://sumo.dlr.de/xsd/routes_file.xsd">

   <vType id="regular3"
            vClass="passenger" accel="2.9" decel="7.5"
            sigma="1.0" carFollowModel="Krauss" minGap="2.50" color="blue" tau="2.0">
            <param key="has.driverstate.device" value="True" />
    </vType>

    <vType id="connected3"
            vClass="passenger" accel="2.9" decel="7.5"
            sigma="0.0" carFollowModel="Krauss" minGap="1.00" color="red" >
    </vType>

    <trip id="0" depart="0.00" from="FM4" to="-AN0" type="connected3"/>
    <trip id="1" depart="1.00" from="-KA3" to="-HM4" type="connected3"/>
    <vehicle id="2" depart="2.00" type="regular3">
        <route edges="HU0 WE5 WE6 BA2 BA3 BA4 BA5 -HE3 GL1"/>
    </vehicle>

    <trip id="3" depart="3.00" from="WE0" to="-BA4" type="connected3"/>
    <trip id="4" depart="4.00" from="-WE17" to="-AN0" type="connected3"/>
    <vehicle id="5" depart="5.00" type="regular3">
        <route edges="-HM3 WO0 WO1 WO2 WO3 WO4 BA3"/>
    </vehicle>

    <trip id="6" depart="6.00" from="-BA6" to="-HM0" type="connected3"/>
    <trip id="7" depart="7.00" from="HE-4" to="BA7" type="connected3"/>
    <vehicle id="8" depart="8.00" type="regular3">
        <route edges="-HM4 -HM3 WO0 WO1 EM0 EM1 EM2"/>
    </vehicle>

    <trip id="9" depart="9.00" from="KA0" to="-AN0" type="connected3"/>
    <trip id="10" depart="10.00" from="KA0" to="HE1" type="connected3"/>
    <vehicle id="11" depart="11.00" type="regular3">
        <route edges="-RE9 HE-8 HE-7 -HE6 -HE5 HE-4 -HE3 -GL0"/>
    </vehicle>

    <trip id="12" depart="12.00" from="WE5" to="-RE0" type="connected3"/>
    <trip id="13" depart="13.00" from="-EM2" to="-EM0" type="connected3"/>
    <vehicle id="14" depart="14.00" type="regular3">
        <route edges="RE0 RE1 -WE16 -WE15 -WE14 -WE13 -WE12 -WE11 -WE10 -WE9 -WE8 -WE7 -WE6 -WE5 -WE4 -WE3 FM1 FM2 FM3 FM4"/>
    </vehicle>

    <trip id="15" depart="15.00" from="KA0" to="HM3" type="connected3"/>
    <trip id="16" depart="16.00" from="BA0" to="WO0" type="connected3"/>
    <vehicle id="17" depart="17.00" type="regular3">
        <route edges="-WE1 -WE0 WE0 WE1 WE2 WE3 WE4 WE5 WE6 BA2 BA3 BA4 BA5 BA6 BA7"/>
    </vehicle>

    <trip id="18" depart="18.00" from="RE0" to="FM6" type="connected3"/>
    <trip id="19" depart="19.00" from="RE4" to="EM2" type="connected3"/>
    <vehicle id="20" depart="20.00" type="regular3">
        <route edges="HM0 WE1 WE2 WE3 WE4 WE5 WE6 -BA1 -BA0"/>
    </vehicle>

    <trip id="21" depart="21.00" from="-HM5" to="-KA0" type="connected3"/>
    <trip id="22" depart="22.00" from="-EM2" to="-HU0" type="connected3"/>
    <vehicle id="23" depart="23.00" type="regular3">
        <route edges="-EM2 -EM1 HE2 HE3 -BA5 -BA4 -BA3 -BA2 WE7 WE8 WE9 WE10 WE11 WE12 WE13 -KA0"/>
    </vehicle>

    <trip id="24" depart="24.00" from="FM3" to="-RE8" type="connected3"/>
    <trip id="25" depart="25.00" from="-TL0" to="-HM0" type="connected3"/>
    <vehicle id="26" depart="26.00" type="regular3">
        <route edges="-KA1 WE14 WE15 WE16 WE17"/>
    </vehicle>

    <trip id="27" depart="27.00" from="HE-4" to="FM5" type="connected3"/>
    <trip id="28" depart="28.00" from="-GL1" to="HM3" type="connected3"/>
    <vehicle id="29" depart="29.00" type="regular3">
        <route edges="-GL1 HE3 -BA5 -BA4 -BA3 -BA2 -WE6 -WE5 -WE4 -WE3 -WE2 -WE1 -WE0"/>
    </vehicle>

    <trip id="30" depart="30.00" from="WO4" to="FM6" type="connected3"/>
    <trip id="31" depart="31.00" from="BA0" to="HE-4" type="connected3"/>
    <vehicle id="32" depart="32.00" type="regular3">
        <route edges="RE0 RE1 -WE16 -WE15 -WE14 -WE13 -WE12 -WE11 -WE10 -WE9 -WE8 -WE7 -WE6 -WE5 HU1 HU2"/>
    </vehicle>

    <trip id="33" depart="33.00" from="-HM5" to="-AN0" type="connected3"/>
    <trip id="34" depart="34.00" from="-RE4" to="-KA0" type="connected3"/>
    <vehicle id="35" depart="35.00" type="regular3">
        <route edges="-HM1 WE1 WE2 WE3 WE4 WE5 WE6 WE7 WE8 WE9 WE10 WE11 WE12 WE13 WE14 WE15 WE16 WE17"/>
    </vehicle>

    <trip id="36" depart="36.00" from="RE8" to="-RE0" type="connected3"/>
    <trip id="37" depart="37.00" from="HE-8" to="-WE0" type="connected3"/>
    <vehicle id="38" depart="38.00" type="regular3">
        <route edges="WE0 WE1 WE2 WE3 WE4 WE5 WE6 BA2 WO5 -AN1 -WE10 -WE9 -WE8"/>
    </vehicle>

    <trip id="39" depart="39.00" from="-KA1" to="-HU0" type="connected3"/>
    <trip id="40" depart="40.00" from="BA0" to="-HU2" type="connected3"/>
    <vehicle id="41" depart="41.00" type="regular3">
        <route edges="BA6 BA7 -BA7 -BA6 -BA5 -BA4 -BA3 -BA2 WE7 WE8 WE9 WE10 WE11 WE12"/>
    </vehicle>

    <trip id="42" depart="42.00" from="-WE15" to="-HM3" type="connected3"/>
    <trip id="43" depart="43.00" from="WO7" to="BA4" type="connected3"/>
    <vehicle id="44" depart="44.00" type="regular3">
        <route edges="-EM2 -EM1 HE2 HE3 -BA5 -BA4 -BA3 -BA2 -BA1 -BA0"/>
    </vehicle>

    <trip id="45" depart="45.00" from="-FM3" to="FM6" type="connected3"/>
    <trip id="46" depart="46.00" from="KA0" to="-WE12" type="connected3"/>
    <vehicle id="47" depart="47.00" type="regular3">
        <route edges="-EM0 -WO1 -FM3 -FM2 -FM1 -WE2 -WE1 -WE0"/>
    </vehicle>

    <trip id="48" depart="48.00" from="WO6" to="BA7" type="connected3"/>
    <trip id="49" depart="49.00" from="WE9" to="RE9" type="connected3"/>
    <vehicle id="50" depart="50.00" type="regular3">
        <route edges="-BA2 WE7 WE8 WE9 WE10 WE11 WE12 WE13 KA1 KA2 HE7 HE8"/>
    </vehicle>

    <trip id="51" depart="51.00" from="HE7" to="BA7" type="connected3"/>
    <trip id="52" depart="52.00" from="-KA1" to="FM6" type="connected3"/>
    <vehicle id="53" depart="53.00" type="regular3">
        <route edges="-FM3 -FM2 -FM1 WE3 WE4 WE5 WE6 WE7 WE8 WE9 WE10 WE11 WE12 WE13 WE14 WE15 WE16 WE17 -WE17 -WE16"/>
    </vehicle>

    <trip id="54" depart="54.00" from="-WE6" to="WE4" type="connected3"/>
    <trip id="55" depart="55.00" from="RE8" to="-HU2" type="connected3"/>
    <vehicle id="56" depart="56.00" type="regular3">
        <route edges="AN0 -WE10 -WE9 -WE8 -WE7 -WE6 -WE5 -WE4 -WE3 -WE2 -WE1 -HM0"/>
    </vehicle>

    <trip id="57" depart="57.00" from="WE0" to="RE9" type="connected3"/>
    <trip id="58" depart="58.00" from="-KA3" to="FM6" type="connected3"/>
    <vehicle id="59" depart="59.00" type="regular3">
        <route edges="FM0 WE3 WE4 WE5 WE6 BA2 BA3 BA4 BA5 -HE3 -GL0"/>
    </vehicle>

    <trip id="60" depart="60.00" from="HU0" to="BA7" type="connected3"/>
    <trip id="61" depart="61.00" from="KA0" to="BA7" type="connected3"/>
    <vehicle id="62" depart="62.00" type="regular3">
        <route edges="-AN1 WE11 WE12 WE13 WE14 WE15 WE16 -RE1 -RE0"/>
    </vehicle>

    <trip id="63" depart="63.00" from="-BA4" to="WE17" type="connected3"/>
    <trip id="64" depart="64.00" from="TL0" to="RE5" type="connected3"/>
    <vehicle id="65" depart="65.00" type="regular3">
        <route edges="-RE1 -RE0 RE0 RE1 -WE16 -WE15 -WE14 -WE13 -WE12 -WE11 -WE10 -WE9 -WE8 -WE7 -BA1 -BA0"/>
    </vehicle>

    <trip id="66" depart="66.00" from="TL0" to="WE2" type="connected3"/>
    <trip id="67" depart="67.00" from="-EM2" to="-WO6" type="connected3"/>
    <vehicle id="68" depart="68.00" type="regular3">
        <route edges="-EM2 -EM1 -HE1 -HE0 HM5"/>
    </vehicle>

    <trip id="69" depart="69.00" from="HU0" to="-FM0" type="connected3"/>
    <trip id="70" depart="70.00" from="-WO3" to="BA7" type="connected3"/>
    <vehicle id="71" depart="71.00" type="regular3">
        <route edges="-KA1 WE14 WE15 WE16 RE2 RE3 RE4 RE5 RE6 RE7 RE8 RE9"/>
    </vehicle>

    <trip id="72" depart="72.00" from="-WE17" to="-HM1" type="connected3"/>
    <trip id="73" depart="73.00" from="BA0" to="HM3" type="connected3"/>
    <vehicle id="74" depart="74.00" type="regular3">
        <route edges="-HE3 -GL0 WO4 -BA2 WE7 WE8 WE9 WE10 WE11 WE12 WE13 WE14 WE15 WE16 -RE1 -RE0"/>
    </vehicle>

    <trip id="75" depart="75.00" from="WO6" to="GL1" type="connected3"/>
    <trip id="76" depart="76.00" from="-WE2" to="BA6" type="connected3"/>
    <vehicle id="77" depart="77.00" type="regular3">
        <route edges="-FM6 -FM5 -FM4 -FM3 -FM2 -FM1 WE3 WE4 -HU0"/>
    </vehicle>

    <trip id="78" depart="78.00" from="-RE9" to="EM2" type="connected3"/>
    <trip id="79" depart="79.00" from="-HM5" to="-HM3" type="connected3"/>
    <vehicle id="80" depart="80.00" type="regular3">
        <route edges="-EM2 -EM1 -HE1 FM6"/>
    </vehicle>

    <trip id="81" depart="81.00" from="-HM5" to="WE15" type="connected3"/>
    <trip id="82" depart="82.00" from="RE3" to="-BA0" type="connected3"/>
    <vehicle id="83" depart="83.00" type="regular3">
        <route edges="-HM5 HE0 HE1 HE2 GL1"/>
    </vehicle>

    <trip id="84" depart="84.00" from="-HM2" to="-FM0" type="connected3"/>
    <trip id="85" depart="85.00" from="WE13" to="EM2" type="connected3"/>
    <vehicle id="86" depart="86.00" type="regular3">
        <route edges="-WO2 EM0 HE2 HE3 HE4 HE5 HE6 KA3"/>
    </vehicle>

    <trip id="87" depart="87.00" from="KA0" to="-HM0" type="connected3"/>
    <trip id="88" depart="88.00" from="-EM2" to="-WE15" type="connected3"/>
    <vehicle id="89" depart="89.00" type="regular3">
        <route edges="-WE17 -WE16 -WE15 -WE14 -WE13 -WE12 -WE11 -WE10 -WE9 -WE8 -WE7 -WE6 -WE5 -WE4 -WE3 FM1 FM2 FM3 -WO0"/>
    </vehicle>

    <trip id="90" depart="90.00" from="HM3" to="GL1" type="connected3"/>
    <trip id="91" depart="91.00" from="WO3" to="-EM1" type="connected3"/>
    <vehicle id="92" depart="92.00" type="regular3">
        <route edges="-WE16 -WE15 -WE14 KA1 WO7 -RE5 -RE4 -RE3 -RE2 -RE1"/>
    </vehicle>

    <trip id="93" depart="93.00" from="RE4" to="-HU0" type="connected3"/>
    <trip id="94" depart="94.00" from="-HE0" to="-WE5" type="connected3"/>
    <vehicle id="95" depart="95.00" type="regular3">
        <route edges="-WE17 -WE16 -WE15 -WE14 -KA0"/>
    </vehicle>

    <trip id="96" depart="96.00" from="-HM5" to="WE17" type="connected3"/>
    <trip id="97" depart="97.00" from="-WE3" to="RE9" type="connected3"/>
    <vehicle id="98" depart="98.00" type="regular3">
        <route edges="BA0 BA1 BA2 BA3 BA4 -BA4 -BA3 -BA2 -BA1 -BA0"/>
    </vehicle>

    <trip id="99" depart="99.00" from="WO7" to="RE6" type="connected3"/>
    <trip id="100" depart="100.00" from="WE8" to="WE17" type="connected3"/>
    <vehicle id="101" depart="101.00" type="regular3">
        <route edges="RE0 RE1 -WE16 -WE15 -WE14 -WE13 -WE12 -WE11 -WE10 -WE9 -WE8 -WE7 BA2 BA3 BA4 BA5 -HE3"/>
    </vehicle>

    <trip id="102" depart="102.00" from="-WO6" to="-HM2" type="connected3"/>
    <trip id="103" depart="103.00" from="-WE16" to="-BA0" type="connected3"/>
    <vehicle id="104" depart="104.00" type="regular3">
        <route edges="-WE1 -WE0 WE0 WE1 WE2 WE3 WE4 HU1 HU2 WO3"/>
    </vehicle>

    <trip id="105" depart="105.00" from="-KA1" to="KA3" type="connected3"/>
    <trip id="106" depart="106.00" from="-WE7" to="-WE12" type="connected3"/>
    <vehicle id="107" depart="107.00" type="regular3">
        <route edges="WE5 WE6 BA2 WO5 WO6"/>
    </vehicle>

    <trip id="108" depart="108.00" from="BA0" to="HE7" type="connected3"/>
    <trip id="109" depart="109.00" from="-GL0" to="-KA0" type="connected3"/>
    <vehicle id="110" depart="110.00" type="regular3">
        <route edges="WE8 WE9 WE10 AN1 -WO5 BA3 BA4 BA5 -HE3 -HE2 EM1 EM2"/>
    </vehicle>

    <trip id="111" depart="111.00" from="BA0" to="HM5" type="connected3"/>
    <trip id="112" depart="112.00" from="-BA7" to="EM2" type="connected3"/>
    <vehicle id="113" depart="113.00" type="regular3">
        <route edges="AN0 WE11 WE12 WE13 WE14 WE15 WE16 RE2 RE3 RE4 RE5 RE6 RE7 RE8 RE9"/>
    </vehicle>

    <trip id="114" depart="114.00" from="-GL1" to="WE6" type="connected3"/>
    <trip id="115" depart="115.00" from="-EM2" to="-HM0" type="connected3"/>
    <vehicle id="116" depart="116.00" type="regular3">
        <route edges="FM0 WE3 WE4 WE5 WE6 BA2 BA3 BA4 BA5 -HE3 GL1"/>
    </vehicle>

    <trip id="117" depart="117.00" from="-HM5" to="-FM0" type="connected3"/>
    <trip id="118" depart="118.00" from="WE0" to="-HU0" type="connected3"/>
    <vehicle id="119" depart="119.00" type="regular3">
        <route edges="FM0 FM1 FM2 FM3 FM4 FM5 FM6"/>
    </vehicle>

    <trip id="120" depart="120.00" from="-WE17" to="EM2" type="connected3"/>
    <trip id="121" depart="121.00" from="AN0" to="WE17" type="connected3"/>
    <vehicle id="122" depart="122.00" type="regular3">
        <route edges="-HE5 HE-4 BA6 BA7 -BA7 -BA6 HE4 HE5 HE6 HE7"/>
    </vehicle>

    <trip id="123" depart="123.00" from="-HM5" to="-WE0" type="connected3"/>
    <trip id="124" depart="124.00" from="HE4" to="-KA1" type="connected3"/>
    <vehicle id="125" depart="125.00" type="regular3">
        <route edges="-RE4 -RE3 -RE2 -WE16 -WE15 -WE14 -WE13 -WE12 -WE11 -WE10 -WE9 -WE8 -WE7 -WE6 -WE5 -WE4 -WE3 -WE2 -WE1 HM1 HM2 HM3 HM4 HM5"/>
    </vehicle>

    <trip id="126" depart="126.00" from="-EM2" to="-WE8" type="connected3"/>
    <trip id="127" depart="127.00" from="WO7" to="WO6" type="connected3"/>
    <vehicle id="128" depart="128.00" type="regular3">
        <route edges="-EM2 -EM1 -EM0 -WO1 -FM3 -TL0 -HM1"/>
    </vehicle>

    <trip id="129" depart="129.00" from="-KA1" to="WE17" type="connected3"/>
    <trip id="130" depart="130.00" from="TL0" to="TL0" type="connected3"/>
    <vehicle id="131" depart="131.00" type="regular3">
        <route edges="-TL0 HM2 WO0 FM4 FM5 -HE0"/>
    </vehicle>

    <trip id="132" depart="132.00" from="RE0" to="HE3" type="connected3"/>
    <trip id="133" depart="133.00" from="FM0" to="WO4" type="connected3"/>
    <vehicle id="134" depart="134.00" type="regular3">
        <route edges="HE-7 -KA2 -KA1 -WE13 -WE12 -WE11 -AN0"/>
    </vehicle>

    <trip id="135" depart="135.00" from="RE0" to="-KA1" type="connected3"/>
    <trip id="136" depart="136.00" from="HE1" to="WE17" type="connected3"/>
    <vehicle id="137" depart="137.00" type="regular3">
        <route edges="-FM6 -FM5 -FM4 -FM3 -FM2 -FM1 -FM0"/>
    </vehicle>

    <trip id="138" depart="138.00" from="-FM2" to="EM0" type="connected3"/>
    <trip id="139" depart="139.00" from="-KA3" to="FM4" type="connected3"/>
    <vehicle id="140" depart="140.00" type="regular3">
        <route edges="HM0 -WE0 WE0 -HM0"/>
    </vehicle>

    <trip id="141" depart="141.00" from="FM3" to="-HU2" type="connected3"/>
    <trip id="142" depart="142.00" from="-WO7" to="WE15" type="connected3"/>
    <vehicle id="143" depart="143.00" type="regular3">
        <route edges="RE0 RE1 -WE16 -WE15 -WE14 -WE13 -WE12 -WE11 -WE10 -WE9 -WE8 -WE7 BA2 BA3 BA4 BA5 BA6 BA7 -BA7 -BA6"/>
    </vehicle>

    <trip id="144" depart="144.00" from="-WE17" to="-KA0" type="connected3"/>
    <trip id="145" depart="145.00" from="-AN2" to="HU1" type="connected3"/>
    <vehicle id="146" depart="146.00" type="regular3">
        <route edges="FM3 WO1 WO2 -HU2"/>
    </vehicle>

    <trip id="147" depart="147.00" from="HU0" to="BA7" type="connected3"/>
    <trip id="148" depart="148.00" from="-WE17" to="-AN0" type="connected3"/>
    <vehicle id="149" depart="149.00" type="regular3">
        <route edges="-EM2 -EM1 -EM0 -WO1 -FM3 TL1"/>
    </vehicle>

    <trip id="150" depart="150.00" from="WE0" to="BA7" type="connected3"/>
    <trip id="151" depart="151.00" from="RE0" to="EM2" type="connected3"/>
    <vehicle id="152" depart="152.00" type="regular3">
        <route edges="-FM6 -FM5 -FM4 -FM3 -FM2 -FM1 -FM0"/>
    </vehicle>

    <trip id="153" depart="153.00" from="-RE1" to="WE13" type="connected3"/>
    <trip id="154" depart="154.00" from="KA0" to="RE9" type="connected3"/>
    <vehicle id="155" depart="155.00" type="regular3">
        <route edges="WE0 -HM0"/>
    </vehicle>

    <trip id="156" depart="156.00" from="-HM5" to="-FM0" type="connected3"/>
    <trip id="157" depart="157.00" from="KA0" to="TL1" type="connected3"/>
    <vehicle id="158" depart="158.00" type="regular3">
        <route edges="-WE17 -WE16 -WE15 -WE14 -WE13 -WE12 -WE11 -WE10 -WE9 -WE8 -WE7 BA2 BA3 BA4 BA5 -HE3 -HE2 -HE1 FM6"/>
    </vehicle>

    <trip id="159" depart="159.00" from="-GL0" to="WE17" type="connected3"/>
    <trip id="160" depart="160.00" from="RE5" to="WO0" type="connected3"/>
    <vehicle id="161" depart="161.00" type="regular3">
        <route edges="KA1 -WO6 -WO5 -BA2 -WE6 -WE5 -WE4 -WE3 FM1 FM2 TL1"/>
    </vehicle>

    <trip id="162" depart="162.00" from="-BA6" to="HM5" type="connected3"/>
    <trip id="163" depart="163.00" from="-RE8" to="WE17" type="connected3"/>
    <vehicle id="164" depart="164.00" type="regular3">
        <route edges="KA0 WE14 WE15 WE16 RE2 RE3 RE4 RE5 RE6 RE7 RE8 RE9"/>
    </vehicle>

    <trip id="165" depart="165.00" from="KA1" to="-KA0" type="connected3"/>
    <trip id="166" depart="166.00" from="KA0" to="-FM0" type="connected3"/>
    <vehicle id="167" depart="167.00" type="regular3">
        <route edges="RE7 RE8 RE9"/>
    </vehicle>

   <trip id="168" depart="168.00" from="-HM4" to="KA3" type="connected3"/>
    <trip id="169" depart="169.00" from="-WE8" to="-RE0" type="connected3"/>
    <vehicle id="170" depart="170.00" type="regular3">
        <route edges="KA0 -WE13 -WE12 -WE11 -WE10 -WE9 -WE8 -WE7 -WE6 -WE5 -HU0"/>
    </vehicle>

    <trip id="171" depart="171.00" from="-BA5" to="-HM0" type="connected3"/>
    <trip id="172" depart="172.00" from="-RE7" to="RE9" type="connected3"/>
    <vehicle id="173" depart="173.00" type="regular3">
        <route edges="WE8 WE9 WE10 WE11 WE12 WE13 -KA0"/>
    </vehicle>

    <trip id="174" depart="174.00" from="FM5" to="-WE0" type="connected3"/>
    <trip id="175" depart="175.00" from="WO2" to="BA7" type="connected3"/>
    <vehicle id="176" depart="176.00" type="regular3">
        <route edges="WE15 WE16 WE17 -WE17 -WE16 -WE15 -WE14 -WE13 -WE12 -WE11 -WE10 -WE9 -WE8 -WE7 -WE6 -WE5 -WE4 -WE3 -FM0"/>
    </vehicle>

    <trip id="177" depart="177.00" from="WE9" to="-HM0" type="connected3"/>
    <trip id="178" depart="178.00" from="WE6" to="-KA0" type="connected3"/>
    <vehicle id="179" depart="179.00" type="regular3">
        <route edges="-FM2 -FM1 WE3 WE4 WE5 WE6 WE7 WE8 WE9 WE10 WE11 WE12 WE13 WE14 WE15 WE16 WE17 -WE17 -WE16"/>
    </vehicle>

    <trip id="180" depart="180.00" from="HM2" to="-RE0" type="connected3"/>
    <trip id="181" depart="181.00" from="FM0" to="BA4" type="connected3"/>
    <vehicle id="182" depart="182.00" type="regular3">
        <route edges="-WE11 -WE10 -WE9 -WE8 -WE7 BA2 BA3 BA4 BA5 -HE3 -HE2 EM1 EM2"/>
    </vehicle>

    <trip id="183" depart="183.00" from="-HM5" to="HE5" type="connected3"/>
    <trip id="184" depart="184.00" from="-AN1" to="WE17" type="connected3"/>
    <vehicle id="185" depart="185.00" type="regular3">
        <route edges="BA0 BA1 BA2 BA3 BA4 BA5 HE4 HE5 HE6 HE7 HE8"/>
    </vehicle>

    <trip id="186" depart="186.00" from="HU0" to="GL1" type="connected3"/>
    <trip id="187" depart="187.00" from="-RE9" to="-BA0" type="connected3"/>
    <vehicle id="188" depart="188.00" type="regular3">
        <route edges="HE1 HE2 HE3 -BA5 -BA4 -BA3 -BA2 WE7 WE8 WE9 WE10 WE11 WE12 WE13 WE14 WE15 WE16 -RE1 -RE0"/>
    </vehicle>

    <trip id="189" depart="189.00" from="-RE3" to="RE9" type="connected3"/>
    <trip id="190" depart="190.00" from="HM0" to="-KA1" type="connected3"/>
    <vehicle id="191" depart="191.00" type="regular3">
        <route edges="-RE2 -WE16 -WE15 -WE14 -WE13 -WE12 -WE11 -WE10 -WE9 -WE8 -WE7 -WE6 -WE5 -WE4 -WE3 -WE2 -WE1 -WE0"/>
    </vehicle>

    <trip id="192" depart="192.00" from="-WE16" to="-KA0" type="connected3"/>
    <trip id="193" depart="193.00" from="-FM6" to="-WE12" type="connected3"/>
    <vehicle id="194" depart="194.00" type="regular3">
        <route edges="WE15 WE16 WE17 -WE17 -WE16 -WE15 -WE14 -WE13 -WE12 -WE11 -WE10 -WE9 -WE8 -WE7 BA2 BA3 BA4 BA5 -HE3 GL1"/>
    </vehicle>

    <trip id="195" depart="195.00" from="WE0" to="FM6" type="connected3"/>
    <trip id="196" depart="196.00" from="-KA3" to="BA7" type="connected3"/>
    <vehicle id="197" depart="197.00" type="regular3">
        <route edges="-AN1 WE11 WE12 WE13 -KA0"/>
    </vehicle>

    <trip id="198" depart="198.00" from="-WE17" to="EM2" type="connected3"/>
    <trip id="199" depart="199.00" from="HE-8" to="-WO0" type="connected3"/>
    <vehicle id="200" depart="200.00" type="regular3">
        <route edges="-WE3 FM1 FM2 FM3 -WO0 -HM2"/>
    </vehicle>

    <trip id="201" depart="201.00" from="-WO2" to="WE13" type="connected3"/>
    <trip id="202" depart="202.00" from="KA0" to="-HE5" type="connected3"/>
    <vehicle id="203" depart="203.00" type="regular3">
        <route edges="-EM2 -EM1 HE2 HE3 BA6"/>
    </vehicle>

    <trip id="204" depart="204.00" from="FM2" to="-RE0" type="connected3"/>
    <trip id="205" depart="205.00" from="RE0" to="HM5" type="connected3"/>
    <vehicle id="206" depart="206.00" type="regular3">
        <route edges="HE4 HE5 -AN2 -WO5 -BA2 -WE6 -WE5 -HU0"/>
    </vehicle>

    <trip id="207" depart="207.00" from="-HE2" to="-AN0" type="connected3"/>
    <trip id="208" depart="208.00" from="-HM5" to="-WO3" type="connected3"/>
    <vehicle id="209" depart="209.00" type="regular3">
        <route edges="RE0 RE1 -WE16 -WE15 -WE14 -WE13 -WE12 -WE11 -WE10 -WE9 -WE8 -WE7 -BA1 -BA0"/>
    </vehicle>

    <trip id="210" depart="210.00" from="-WE17" to="FM6" type="connected3"/>
    <trip id="211" depart="211.00" from="-HE1" to="HE1" type="connected3"/>
    <vehicle id="212" depart="212.00" type="regular3">
        <route edges="AN0 -WE10 -WE9 -WE8 -WE7 -WE6 -WE5 -HU0"/>
    </vehicle>

    <trip id="213" depart="213.00" from="HE-8" to="-AN0" type="connected3"/>
    <trip id="214" depart="214.00" from="HU0" to="HU1" type="connected3"/>
    <vehicle id="215" depart="215.00" type="regular3">
        <route edges="-FM2 -FM1 WE3 WE4 WE5 WE6 WE7 WE8 WE9 WE10 WE11 WE12 WE13 WE14 WE15 WE16 WE17 -WE17 -WE16 -WE15 -WE14 -WE13"/>
    </vehicle>

    <trip id="216" depart="216.00" from="-GL1" to="WE5" type="connected3"/>
    <trip id="217" depart="217.00" from="AN0" to="-BA0" type="connected3"/>
    <vehicle id="218" depart="218.00" type="regular3">
        <route edges="-HM5 HE0 HE1 HE2 HE3 HE4 HE5 HE6 HE7 HE8 RE9"/>
    </vehicle>

    <trip id="219" depart="219.00" from="-WE7" to="KA3" type="connected3"/>
    <trip id="220" depart="220.00" from="HE2" to="WO4" type="connected3"/>
    <vehicle id="221" depart="221.00" type="regular3">
        <route edges="FM0 WE3"/>
    </vehicle>

    <trip id="222" depart="222.00" from="WE0" to="FM6" type="connected3"/>
    <trip id="223" depart="223.00" from="HM0" to="BA2" type="connected3"/>
    <vehicle id="224" depart="224.00" type="regular3">
        <route edges="RE0 RE1 -WE16 -WE15 -WE14 -WE13 -WE12 -WE11 -WE10 -WE9 -WE8 -WE7 BA2 BA3 BA4 BA5 BA6 BA7"/>
    </vehicle>

    <trip id="225" depart="225.00" from="WE0" to="HM5" type="connected3"/>
    <trip id="226" depart="226.00" from="-WO3" to="-HU1" type="connected3"/>
    <vehicle id="227" depart="227.00" type="regular3">
        <route edges="-HM5 HE0 FM6"/>
    </vehicle>

    <trip id="228" depart="228.00" from="HU0" to="BA7" type="connected3"/>
    <trip id="229" depart="229.00" from="FM0" to="-KA0" type="connected3"/>
    <vehicle id="230" depart="230.00" type="regular3">
        <route edges="-EM2 -EM1 HE2 HE3 -BA5 -BA4 -BA3 -BA2 WE7 WE8 WE9 WE10 WE11 WE12 WE13 -KA0"/>
    </vehicle>

    <trip id="231" depart="231.00" from="-KA3" to="-RE0" type="connected3"/>
    <trip id="232" depart="232.00" from="BA0" to="-FM1" type="connected3"/>
    <vehicle id="233" depart="233.00" type="regular3">
        <route edges="-HM5 HE0"/>
    </vehicle>

    <trip id="234" depart="234.00" from="HM0" to="-BA0" type="connected3"/>
    <trip id="235" depart="235.00" from="-WE17" to="BA7" type="connected3"/>
    <vehicle id="236" depart="236.00" type="regular3">
        <route edges="-WE17 -WE16 -WE15 -WE14 -WE13 -WE12 -WE11 -WE10 -WE9 -WE8 -WE7 -WE6 -WE5 -WE4 -WE3 -WE2 -WE1 -HM0"/>
    </vehicle>

    <trip id="237" depart="237.00" from="-WE17" to="WE14" type="connected3"/>
    <trip id="238" depart="238.00" from="BA6" to="HE1" type="connected3"/>
    <vehicle id="239" depart="239.00" type="regular3">
        <route edges="RE2 RE3 RE4 RE5 RE6 RE7 RE8 HE-8 HE-7 -HE6 -HE5 HE-4 -HE3 -HE2 -HE1 -HE0 HM5"/>
    </vehicle>

    <trip id="240" depart="240.00" from="-WE10" to="-AN0" type="connected3"/>
    <trip id="241" depart="241.00" from="-RE9" to="HM5" type="connected3"/>
    <vehicle id="242" depart="242.00" type="regular3">
        <route edges="RE1 -WE16 -WE15 -WE14 -WE13 -WE12 -WE11 -WE10 -WE9 -WE8 -WE7 -WE6 -WE5 -WE4 -WE3 -FM0 FM0 WE3 WE4"/>
    </vehicle>

    <trip id="243" depart="243.00" from="-WE17" to="HM5" type="connected3"/>
    <trip id="244" depart="244.00" from="BA0" to="FM3" type="connected3"/>
    <vehicle id="245" depart="245.00" type="regular3">
        <route edges="-HM4 -HM3"/>
    </vehicle>

    <trip id="246" depart="246.00" from="-WE17" to="-AN0" type="connected3"/>
    <trip id="247" depart="247.00" from="-RE9" to="GL1" type="connected3"/>
    <vehicle id="248" depart="248.00" type="regular3">
        <route edges="-WE17 -WE16 -WE15 -WE14 -WE13 -WE12 -WE11 -WE10 -WE9 -WE8 -WE7 BA2 BA3 BA4 BA5 -HE3 -HE2"/>
    </vehicle>

    <trip id="249" depart="249.00" from="-WO0" to="-FM0" type="connected3"/>
    <trip id="250" depart="250.00" from="FM0" to="-AN0" type="connected3"/>
    <vehicle id="251" depart="251.00" type="regular3">
        <route edges="-WE14 -WE13 -WE12 -WE11 -WE10 -WE9 -WE8 -WE7 BA2 BA3 BA4 BA5 -HE3 -HE2 EM1 EM2"/>
    </vehicle>

    <trip id="252" depart="252.00" from="-BA6" to="FM6" type="connected3"/>
    <trip id="253" depart="253.00" from="-FM6" to="-WE9" type="connected3"/>
    <vehicle id="254" depart="254.00" type="regular3">
        <route edges="-BA7 -BA6 -BA5 -BA4 -BA3 -BA2 -WE6 -WE5 -WE4 -WE3 -WE2 -WE1 -WE0"/>
    </vehicle>

    <trip id="255" depart="255.00" from="-HM1" to="-RE0" type="connected3"/>
    <trip id="256" depart="256.00" from="HU0" to="-WE0" type="connected3"/>
    <vehicle id="257" depart="257.00" type="regular3">
        <route edges="HU0 WE5 WE6 WE7 WE8 WE9 WE10 WE11 WE12 WE13 WE14 WE15 WE16 RE2 RE3 RE4 RE5"/>
    </vehicle>

    <trip id="258" depart="258.00" from="-HM5" to="-BA3" type="connected3"/>
    <trip id="259" depart="259.00" from="-BA4" to="BA7" type="connected3"/>
    <vehicle id="260" depart="260.00" type="regular3">
        <route edges="WO7 -RE5 -RE4"/>
    </vehicle>

    <trip id="261" depart="261.00" from="HE-4" to="KA2" type="connected3"/>
    <trip id="262" depart="262.00" from="HE-7" to="HM5" type="connected3"/>
    <vehicle id="263" depart="263.00" type="regular3">
        <route edges="WE3 WE4 -HU0 HU0 -WE4 -WE3 -WE2 -WE1 -HM0"/>
    </vehicle>

    <trip id="264" depart="264.00" from="-BA5" to="-FM5" type="connected3"/>
    <trip id="265" depart="265.00" from="-FM6" to="GL1" type="connected3"/>
    <vehicle id="266" depart="266.00" type="regular3">
        <route edges="BA0 BA1 -WE6 -WE5 -WE4 -WE3 FM1 FM2 FM3 FM4 -RM0 -HM3"/>
    </vehicle>

    <trip id="267" depart="267.00" from="HM0" to="HM5" type="connected3"/>
    <trip id="268" depart="268.00" from="-GL1" to="FM5" type="connected3"/>
    <vehicle id="269" depart="269.00" type="regular3">
        <route edges="HU0 -WE4 -WE3 -FM0"/>
    </vehicle>

    <trip id="270" depart="270.00" from="RE0" to="WE7" type="connected3"/>
    <trip id="271" depart="271.00" from="-FM2" to="-AN0" type="connected3"/>
    <vehicle id="272" depart="272.00" type="regular3">
        <route edges="-RE3 -RE2 -WE16 -WE15 -WE14 -WE13 -WE12 -WE11 -WE10 -WE9 -WE8 -WE7 BA2 BA3 BA4 BA5 -HE3 GL1"/>
    </vehicle>

    <trip id="273" depart="273.00" from="WE5" to="-WE0" type="connected3"/>
    <trip id="274" depart="274.00" from="HM0" to="-BA1" type="connected3"/>
    <vehicle id="275" depart="275.00" type="regular3">
        <route edges="HM0 WE1 WE2 FM1 FM2 FM3 FM4 FM5 FM6"/>
    </vehicle>

    <trip id="276" depart="276.00" from="-FM1" to="HU1" type="connected3"/>
    <trip id="277" depart="277.00" from="RE0" to="FM3" type="connected3"/>
    <vehicle id="278" depart="278.00" type="regular3">
        <route edges="-FM6 HE1 -EM0 WO2 WO3"/>
    </vehicle>

    <trip id="279" depart="279.00" from="KA0" to="-RE3" type="connected3"/>
    <trip id="280" depart="280.00" from="-WE17" to="-TL0" type="connected3"/>
    <vehicle id="281" depart="281.00" type="regular3">
        <route edges="AN0 WE11 WE12 WE13 WE14 WE15 WE16 -RE1"/>