<?xml version="1.0" encoding="UTF-8"?>

<!-- generated on 2021-06-18 14:26:26 by Eclipse SUMO netedit Version 1.9.2
<configuration xmlns:xsi="http://www.w3.org/2001/XMLSchema-instance" xsi:noNamespaceSchemaLocation="http://sumo.dlr.de/xsd/netconvertConfiguration.xsd">

    <input>
        <sumo-net-file value="C:\Users\awendler\Sumo\Kassberg\kassberg.net.xml"/>
    </input>

    <output>
        <output-file value="C:\Users\awendler\Sumo\Kassberg\kassberg.net.xml"/>
        <output.street-names value="true"/>
    </output>

    <processing>
        <geometry.min-radius.fix.railways value="false"/>
        <geometry.max-grade.fix value="false"/>
        <offset.disable-normalization value="true"/>
        <lefthand value="false"/>
    </processing>

    <junctions>
        <no-turnarounds value="true"/>
        <junctions.corner-detail value="5"/>
        <junctions.limit-turn-speed value="5.5"/>
        <rectangular-lane-cut value="false"/>
    </junctions>

    <pedestrian>
        <walkingareas value="false"/>
    </pedestrian>

    <report>
        <aggregate-warnings value="5"/>
    </report>

</configuration>
-->

<net version="1.9" junctionCornerDetail="5" limitTurnSpeed="5.50" xmlns:xsi="http://www.w3.org/2001/XMLSchema-instance" xsi:noNamespaceSchemaLocation="http://sumo.dlr.de/xsd/net_file.xsd">

    <location netOffset="-351667.70,-5632699.73" convBoundary="0.00,389.41,1104.15,1145.76" origBoundary="12.889377,50.825576,12.911292,50.837390" projParameter="+proj=utm +zone=33 +ellps=WGS84 +datum=WGS84 +units=m +no_defs"/>

    <type id="highway.bridleway" priority="1" numLanes="1" speed="2.78" allow="pedestrian" oneway="1" width="2.00"/>
    <type id="highway.bus_guideway" priority="1" numLanes="1" speed="27.78" allow="bus" oneway="1"/>
    <type id="highway.cycleway" priority="1" numLanes="1" speed="8.33" allow="bicycle" oneway="1" width="1.00"/>
    <type id="highway.footway" priority="1" numLanes="1" speed="2.78" allow="pedestrian" oneway="1" width="2.00"/>
    <type id="highway.ford" priority="1" numLanes="1" speed="2.78" allow="army" oneway="1"/>
    <type id="highway.living_street" priority="2" numLanes="1" speed="2.78" disallow="tram rail_urban rail rail_electric rail_fast ship" oneway="1"/>
    <type id="highway.motorway" priority="14" numLanes="2" speed="39.44" allow="private emergency authority army vip passenger hov taxi bus coach delivery truck trailer motorcycle evehicle custom1 custom2" oneway="1"/>
    <type id="highway.motorway_link" priority="9" numLanes="1" speed="22.22" allow="private emergency authority army vip passenger hov taxi bus coach delivery truck trailer motorcycle evehicle custom1 custom2" oneway="1"/>
    <type id="highway.path" priority="1" numLanes="1" speed="2.78" allow="pedestrian bicycle" oneway="1" width="2.00"/>
    <type id="highway.pedestrian" priority="1" numLanes="1" speed="2.78" allow="pedestrian" oneway="1" width="2.00"/>
    <type id="highway.primary" priority="12" numLanes="2" speed="27.78" disallow="tram rail_urban rail rail_electric rail_fast ship" oneway="1"/>
    <type id="highway.primary_link" priority="7" numLanes="1" speed="22.22" disallow="tram rail_urban rail rail_electric rail_fast ship" oneway="1"/>
    <type id="highway.raceway" priority="15" numLanes="2" speed="83.33" allow="vip" oneway="1"/>
    <type id="highway.residential" priority="3" numLanes="1" speed="8.33" disallow="tram rail_urban rail rail_electric rail_fast ship" oneway="1"/>
    <type id="highway.secondary" priority="11" numLanes="1" speed="27.78" disallow="tram rail_urban rail rail_electric rail_fast ship" oneway="1"/>
    <type id="highway.secondary_link" priority="6" numLanes="1" speed="22.22" disallow="tram rail_urban rail rail_electric rail_fast ship" oneway="1"/>
    <type id="highway.service" priority="1" numLanes="1" speed="5.56" allow="pedestrian delivery bicycle" oneway="1"/>
    <type id="highway.stairs" priority="1" numLanes="1" speed="1.39" allow="pedestrian" oneway="1" width="2.00"/>
    <type id="highway.step" priority="1" numLanes="1" speed="1.39" allow="pedestrian" oneway="1" width="2.00"/>
    <type id="highway.steps" priority="1" numLanes="1" speed="1.39" allow="pedestrian" oneway="1" width="2.00"/>
    <type id="highway.tertiary" priority="10" numLanes="1" speed="22.22" disallow="tram rail_urban rail rail_electric rail_fast ship" oneway="1"/>
    <type id="highway.tertiary_link" priority="5" numLanes="1" speed="22.22" disallow="tram rail_urban rail rail_electric rail_fast ship" oneway="1"/>
    <type id="highway.track" priority="1" numLanes="1" speed="5.56" allow="pedestrian motorcycle moped bicycle" oneway="1"/>
    <type id="highway.trunk" priority="13" numLanes="2" speed="27.78" disallow="pedestrian bicycle tram rail_urban rail rail_electric rail_fast ship" oneway="1"/>
    <type id="highway.trunk_link" priority="8" numLanes="1" speed="22.22" disallow="pedestrian bicycle tram rail_urban rail rail_electric rail_fast ship" oneway="1"/>
    <type id="highway.unclassified" priority="4" numLanes="1" speed="13.89" disallow="tram rail_urban rail rail_electric rail_fast ship" oneway="1"/>
    <type id="highway.unsurfaced" priority="1" numLanes="1" speed="8.33" disallow="tram rail_urban rail rail_electric rail_fast ship" oneway="1"/>
    <type id="railway.highspeed" priority="21" numLanes="1" speed="69.44" allow="rail_fast" oneway="1"/>
    <type id="railway.light_rail" priority="19" numLanes="1" speed="27.78" allow="rail_urban" oneway="1"/>
    <type id="railway.preserved" priority="16" numLanes="1" speed="27.78" allow="rail" oneway="1"/>
    <type id="railway.rail" priority="20" numLanes="1" speed="44.44" allow="rail" oneway="1"/>
    <type id="railway.subway" priority="18" numLanes="1" speed="27.78" allow="rail_urban" oneway="1"/>
    <type id="railway.tram" priority="17" numLanes="1" speed="13.89" allow="tram" oneway="1"/>

    <edge id=":4504783747_0" function="internal">
        <lane id=":4504783747_0_0" index="0" disallow="tram rail_urban rail rail_electric rail_fast ship" speed="13.89" length="0.30" shape="487.34,542.18 487.04,542.12"/>
    </edge>
    <edge id=":4504783747_1" function="internal">
        <lane id=":4504783747_1_0" index="0" disallow="tram rail_urban rail rail_electric rail_fast ship" speed="13.89" length="0.29" shape="487.66,538.98 487.95,539.04"/>
    </edge>
    <edge id=":AN-HE_0" function="internal">
        <lane id=":AN-HE_0_0" index="0" disallow="tram rail_urban rail rail_electric rail_fast ship" speed="8.33" length="14.25" shape="680.72,949.39 666.52,948.18"/>
    </edge>
    <edge id=":AN-HE_1" function="internal">
        <lane id=":AN-HE_1_0" index="0" disallow="tram rail_urban rail rail_electric rail_fast ship" speed="8.00" length="5.82" shape="680.72,949.39 676.96,948.49 675.38,947.33"/>
    </edge>
    <edge id=":AN-HE_6" function="internal">
        <lane id=":AN-HE_6_0" index="0" disallow="tram rail_urban rail rail_electric rail_fast ship" speed="8.00" length="8.28" shape="675.38,947.33 674.39,946.60 672.99,943.73 672.78,939.88"/>
    </edge>
    <edge id=":AN-HE_2" function="internal">
        <lane id=":AN-HE_2_0" index="0" disallow="tram rail_urban rail rail_electric rail_fast ship" speed="6.51" length="8.98" shape="675.96,940.15 676.10,942.61 676.99,944.43 678.63,945.63 681.02,946.21"/>
    </edge>
    <edge id=":AN-HE_3" function="internal">
        <lane id=":AN-HE_3_0" index="0" disallow="tram rail_urban rail rail_electric rail_fast ship" speed="8.01" length="14.11" shape="675.96,940.15 675.09,943.91 673.23,946.51 670.37,947.93 666.52,948.18"/>
    </edge>
    <edge id=":AN-HE_4" function="internal">
        <lane id=":AN-HE_4_0" index="0" disallow="tram rail_urban rail rail_electric rail_fast ship" speed="6.51" length="8.98" shape="666.77,944.99 669.22,944.83 671.04,943.92 672.22,942.27 672.78,939.88"/>
    </edge>
    <edge id=":AN-HE_5" function="internal">
        <lane id=":AN-HE_5_0" index="0" disallow="tram rail_urban rail rail_electric rail_fast ship" speed="8.33" length="14.30" shape="666.77,944.99 681.02,946.21"/>
    </edge>
    <edge id=":AN-WE_0" function="internal">
        <lane id=":AN-WE_0_0" index="0" disallow="tram rail_urban rail rail_electric rail_fast ship" speed="6.23" length="9.05" shape="707.07,586.80 704.54,586.66 702.69,587.40 701.51,589.00 700.99,591.48"/>
    </edge>
    <edge id=":AN-WE_1" function="internal">
        <lane id=":AN-WE_1_0" index="0" disallow="tram rail_urban rail rail_electric rail_fast ship" speed="13.89" length="14.60" shape="707.07,586.80 692.76,583.89"/>
    </edge>
    <edge id=":AN-WE_2" function="internal">
        <lane id=":AN-WE_2_0" index="0" disallow="tram rail_urban rail rail_electric rail_fast ship" speed="7.86" length="6.08" shape="707.07,586.80 703.19,585.43 701.76,584.09"/>
    </edge>
    <edge id=":AN-WE_12" function="internal">
        <lane id=":AN-WE_12_0" index="0" disallow="tram rail_urban rail rail_electric rail_fast ship" speed="7.86" length="8.61" shape="701.76,584.09 700.81,583.19 699.92,580.06 700.52,576.06"/>
    </edge>
    <edge id=":AN-WE_3" function="internal">
        <lane id=":AN-WE_3_0" index="0" disallow="tram rail_urban rail rail_electric rail_fast ship" speed="6.34" length="9.15" shape="703.59,576.99 703.21,579.48 703.77,581.42 705.27,582.81 707.69,583.66"/>
    </edge>
    <edge id=":AN-WE_4" function="internal">
        <lane id=":AN-WE_4_0" index="0" disallow="tram rail_urban rail rail_electric rail_fast ship" speed="8.33" length="14.75" shape="703.59,576.99 702.61,580.57 701.86,584.16 701.32,587.78 700.99,591.48"/>
    </edge>
    <edge id=":AN-WE_5" function="internal">
        <lane id=":AN-WE_5_0" index="0" disallow="tram rail_urban rail rail_electric rail_fast ship" speed="8.32" length="14.36" shape="703.59,576.99 701.93,580.65 699.57,583.02 696.51,584.10 692.76,583.89"/>
    </edge>
    <edge id=":AN-WE_6" function="internal">
        <lane id=":AN-WE_6_0" index="0" disallow="tram rail_urban rail rail_electric rail_fast ship" speed="6.89" length="9.53" shape="693.41,580.76 695.86,580.88 697.86,580.14 699.42,578.53 700.52,576.06"/>
    </edge>
    <edge id=":AN-WE_7" function="internal">
        <lane id=":AN-WE_7_0" index="0" disallow="tram rail_urban rail rail_electric rail_fast ship" speed="13.89" length="14.58" shape="693.41,580.76 707.69,583.66"/>
    </edge>
    <edge id=":AN-WE_8" function="internal">
        <lane id=":AN-WE_8_0" index="0" disallow="tram rail_urban rail rail_electric rail_fast ship" speed="8.55" length="5.75" shape="693.41,580.76 696.93,582.06 698.41,583.41"/>
    </edge>
    <edge id=":AN-WE_13" function="internal">
        <lane id=":AN-WE_13_0" index="0" disallow="tram rail_urban rail rail_electric rail_fast ship" speed="8.55" length="8.79" shape="698.41,583.41 699.37,584.28 700.72,587.42 700.99,591.48"/>
    </edge>
    <edge id=":AN-WE_9" function="internal">
        <lane id=":AN-WE_9_0" index="0" disallow="tram rail_urban rail rail_electric rail_fast ship" speed="7.15" length="9.91" shape="697.80,591.29 697.63,588.47 696.73,586.30 695.11,584.77 692.76,583.89"/>
    </edge>
    <edge id=":AN-WE_10" function="internal">
        <lane id=":AN-WE_10_0" index="0" disallow="tram rail_urban rail rail_electric rail_fast ship" speed="8.33" length="15.50" shape="697.80,591.29 698.15,587.47 698.73,583.59 699.53,579.75 700.52,576.06"/>
    </edge>
    <edge id=":AN-WE_11" function="internal">
        <lane id=":AN-WE_11_0" index="0" disallow="tram rail_urban rail rail_electric rail_fast ship" speed="7.78" length="14.74" shape="697.80,591.29 698.63,587.25 700.56,584.64 703.58,583.44 707.69,583.66"/>
    </edge>
    <edge id=":AN-WO_0" function="internal">
        <lane id=":AN-WO_0_0" index="0" disallow="tram rail_urban rail rail_electric rail_fast ship" speed="6.46" length="9.03" shape="694.75,786.89 692.27,786.98 690.42,787.85 689.22,789.49 688.66,791.91"/>
    </edge>
    <edge id=":AN-WO_1" function="internal">
        <lane id=":AN-WO_1_0" index="0" disallow="tram rail_urban rail rail_electric rail_fast ship" speed="8.33" length="14.71" shape="694.75,786.89 680.14,785.20"/>
    </edge>
    <edge id=":AN-WO_2" function="internal">
        <lane id=":AN-WO_2_0" index="0" disallow="tram rail_urban rail rail_electric rail_fast ship" speed="8.21" length="14.48" shape="694.75,786.89 690.95,785.93 688.32,783.96 686.85,781.00 686.54,777.04"/>
    </edge>
    <edge id=":AN-WO_3" function="internal">
        <lane id=":AN-WO_3_0" index="0" disallow="tram rail_urban rail rail_electric rail_fast ship" speed="6.76" length="9.49" shape="689.74,777.23 689.94,779.84 690.90,781.79 692.61,783.08 695.09,783.71"/>
    </edge>
    <edge id=":AN-WO_4" function="internal">
        <lane id=":AN-WO_4_0" index="0" disallow="tram rail_urban rail rail_electric rail_fast ship" speed="8.33" length="14.72" shape="689.74,777.23 688.66,791.91"/>
    </edge>
    <edge id=":AN-WO_5" function="internal">
        <lane id=":AN-WO_5_0" index="0" disallow="tram rail_urban rail rail_electric rail_fast ship" speed="7.89" length="14.44" shape="689.74,777.23 688.93,781.14 687.06,783.77 684.13,785.12 680.14,785.20"/>
    </edge>
    <edge id=":AN-WO_6" function="internal">
        <lane id=":AN-WO_6_0" index="0" disallow="tram rail_urban rail rail_electric rail_fast ship" speed="6.37" length="9.04" shape="680.53,782.02 683.03,781.98 684.87,781.13 686.04,779.48 686.54,777.04"/>
    </edge>
    <edge id=":AN-WO_7" function="internal">
        <lane id=":AN-WO_7_0" index="0" disallow="tram rail_urban rail rail_electric rail_fast ship" speed="8.33" length="14.65" shape="680.53,782.02 695.09,783.71"/>
    </edge>
    <edge id=":AN-WO_8" function="internal">
        <lane id=":AN-WO_8_0" index="0" disallow="tram rail_urban rail rail_electric rail_fast ship" speed="8.19" length="14.47" shape="680.53,782.02 684.37,783.06 687.01,785.05 688.44,788.00 688.66,791.91"/>
    </edge>
    <edge id=":AN-WO_9" function="internal">
        <lane id=":AN-WO_9_0" index="0" disallow="tram rail_urban rail rail_electric rail_fast ship" speed="6.73" length="9.45" shape="685.48,791.63 685.33,789.09 684.39,787.17 682.66,785.87 680.14,785.20"/>
    </edge>
    <edge id=":AN-WO_10" function="internal">
        <lane id=":AN-WO_10_0" index="0" disallow="tram rail_urban rail rail_electric rail_fast ship" speed="8.33" length="14.64" shape="685.48,791.63 686.54,777.04"/>
    </edge>
    <edge id=":AN-WO_11" function="internal">
        <lane id=":AN-WO_11_0" index="0" disallow="tram rail_urban rail rail_electric rail_fast ship" speed="7.96" length="14.27" shape="685.48,791.63 686.36,787.81 688.26,785.22 691.17,783.85 695.09,783.71"/>
    </edge>
    <edge id=":BA-HE_0" function="internal">
        <lane id=":BA-HE_0_0" index="0" disallow="tram rail_urban rail rail_electric rail_fast ship" speed="7.40" length="11.83" shape="537.45,937.94 533.55,937.96 530.68,938.77 528.84,940.36 528.04,942.74"/>
    </edge>
    <edge id=":BA-HE_1" function="internal">
        <lane id=":BA-HE_1_0" index="0" disallow="tram rail_urban rail rail_electric rail_fast ship" speed="8.33" length="20.46" shape="537.45,937.94 532.90,937.30 527.38,936.14 521.94,934.70 517.59,933.21"/>
    </edge>
    <edge id=":BA-HE_2" function="internal">
        <lane id=":BA-HE_2_0" index="0" disallow="tram rail_urban rail rail_electric rail_fast ship" speed="8.84" length="9.17" shape="537.45,937.94 532.25,936.88 528.95,934.87"/>
    </edge>
    <edge id=":BA-HE_12" function="internal">
        <lane id=":BA-HE_12_0" index="0" disallow="tram rail_urban rail rail_electric rail_fast ship" speed="8.84" length="8.54" shape="528.95,934.87 528.68,934.71 526.73,931.42 526.40,927.03"/>
    </edge>
    <edge id=":BA-HE_3" function="internal">
        <lane id=":BA-HE_3_0" index="0" disallow="tram rail_urban rail rail_electric rail_fast ship" speed="6.74" length="9.88" shape="532.77,927.66 532.84,930.59 533.68,932.74 535.31,934.13 537.72,934.76"/>
    </edge>
    <edge id=":BA-HE_4" function="internal">
        <lane id=":BA-HE_4_0" index="0" disallow="tram rail_urban rail rail_electric rail_fast ship" speed="13.89" length="15.88" shape="532.77,927.66 531.78,932.63 530.31,936.28 528.89,939.39 528.04,942.74"/>
    </edge>
    <edge id=":BA-HE_5" function="internal">
        <lane id=":BA-HE_5_0" index="0" disallow="tram rail_urban rail rail_electric rail_fast ship" speed="7.81" length="8.25" shape="529.59,927.34 528.45,931.62 526.07,934.03 525.64,934.09"/>
    </edge>
    <edge id=":BA-HE_13" function="internal">
        <lane id=":BA-HE_13_0" index="0" disallow="tram rail_urban rail rail_electric rail_fast ship" speed="7.81" length="8.26" shape="525.64,934.09 522.45,934.56 517.59,933.21"/>
    </edge>
    <edge id=":BA-HE_6" function="internal">
        <lane id=":BA-HE_6_0" index="0" disallow="tram rail_urban rail rail_electric rail_fast ship" speed="6.26" length="10.15" shape="518.82,930.26 521.91,931.14 524.21,930.90 525.70,929.53 526.40,927.03"/>
    </edge>
    <edge id=":BA-HE_7" function="internal">
        <lane id=":BA-HE_7_0" index="0" disallow="tram rail_urban rail rail_electric rail_fast ship" speed="8.33" length="19.48" shape="518.82,930.26 523.02,931.71 528.13,933.07 533.32,934.15 537.72,934.76"/>
    </edge>
    <edge id=":BA-HE_8" function="internal">
        <lane id=":BA-HE_8_0" index="0" disallow="tram rail_urban rail rail_electric rail_fast ship" speed="9.74" length="6.47" shape="518.82,930.26 523.17,932.61 524.27,933.66"/>
    </edge>
    <edge id=":BA-HE_14" function="internal">
        <lane id=":BA-HE_14_0" index="0" disallow="tram rail_urban rail rail_electric rail_fast ship" speed="9.74" length="10.26" shape="524.27,933.66 526.16,935.47 527.78,938.85 528.04,942.74"/>
    </edge>
    <edge id=":BA-HE_9" function="internal">
        <lane id=":BA-HE_9_0" index="0" disallow="tram rail_urban rail rail_electric rail_fast ship" speed="7.83" length="10.52" shape="521.67,942.08 521.68,938.95 521.01,936.43 519.64,934.51 517.59,933.21"/>
    </edge>
    <edge id=":BA-HE_10" function="internal">
        <lane id=":BA-HE_10_0" index="0" disallow="tram rail_urban rail rail_electric rail_fast ship" speed="13.89" length="15.85" shape="521.67,942.08 522.68,937.12 524.16,933.48 525.57,930.38 526.40,927.03"/>
    </edge>
    <edge id=":BA-HE_11" function="internal">
        <lane id=":BA-HE_11_0" index="0" disallow="tram rail_urban rail rail_electric rail_fast ship" speed="8.74" length="7.57" shape="524.86,942.41 525.99,938.68 528.52,936.16 528.62,936.13"/>
    </edge>
    <edge id=":BA-HE_15" function="internal">
        <lane id=":BA-HE_15_0" index="0" disallow="tram rail_urban rail rail_electric rail_fast ship" speed="8.74" length="9.31" shape="528.62,936.13 532.43,934.85 537.72,934.76"/>
    </edge>
    <edge id=":BA-WE_0" function="internal">
        <lane id=":BA-WE_0_0" index="0" disallow="tram rail_urban rail rail_electric rail_fast ship" speed="7.02" length="11.41" shape="578.62,563.40 574.87,562.98 572.11,563.51 570.32,564.96 569.50,567.35"/>
    </edge>
    <edge id=":BA-WE_1" function="internal">
        <lane id=":BA-WE_1_0" index="0" disallow="tram rail_urban rail rail_electric rail_fast ship" speed="13.89" length="17.95" shape="578.62,563.40 573.01,561.73 568.86,559.75 565.44,557.94 562.00,556.76"/>
    </edge>
    <edge id=":BA-WE_2" function="internal">
        <lane id=":BA-WE_2_0" index="0" disallow="tram rail_urban rail rail_electric rail_fast ship" speed="8.54" length="7.69" shape="579.27,560.27 574.12,558.59 572.31,557.22"/>
    </edge>
    <edge id=":BA-WE_12" function="internal">
        <lane id=":BA-WE_12_0" index="0" disallow="tram rail_urban rail rail_electric rail_fast ship" speed="8.54" length="9.62" shape="572.31,557.22 570.82,556.10 569.38,552.78 569.79,548.65"/>
    </edge>
    <edge id=":BA-WE_3" function="internal">
        <lane id=":BA-WE_3_0" index="0" disallow="tram rail_urban rail rail_electric rail_fast ship" speed="6.34" length="9.04" shape="575.93,550.46 575.57,552.94 576.12,554.88 577.57,556.28 579.92,557.13"/>
    </edge>
    <edge id=":BA-WE_4" function="internal">
        <lane id=":BA-WE_4_0" index="0" disallow="tram rail_urban rail rail_electric rail_fast ship" speed="13.89" length="18.11" shape="575.93,550.46 573.93,556.06 571.97,560.29 570.39,563.83 569.50,567.35"/>
    </edge>
    <edge id=":BA-WE_5" function="internal">
        <lane id=":BA-WE_5_0" index="0" disallow="tram rail_urban rail rail_electric rail_fast ship" speed="8.38" length="5.81" shape="572.86,549.56 571.21,553.31 570.02,554.54"/>
    </edge>
    <edge id=":BA-WE_13" function="internal">
        <lane id=":BA-WE_13_0" index="0" disallow="tram rail_urban rail rail_electric rail_fast ship" speed="8.38" length="8.75" shape="570.02,554.54 568.85,555.76 565.78,556.91 562.00,556.76"/>
    </edge>
    <edge id=":BA-WE_6" function="internal">
        <lane id=":BA-WE_6_0" index="0" disallow="tram rail_urban rail rail_electric rail_fast ship" speed="6.96" length="9.74" shape="562.61,553.62 565.09,553.70 567.11,552.90 568.67,551.22 569.79,548.65"/>
    </edge>
    <edge id=":BA-WE_7" function="internal">
        <lane id=":BA-WE_7_0" index="0" disallow="tram rail_urban rail rail_electric rail_fast ship" speed="13.89" length="17.66" shape="562.61,553.62 579.92,557.13"/>
    </edge>
    <edge id=":BA-WE_8" function="internal">
        <lane id=":BA-WE_8_0" index="0" disallow="tram rail_urban rail rail_electric rail_fast ship" speed="8.99" length="7.17" shape="562.61,553.62 566.15,555.08 568.30,557.65"/>
    </edge>
    <edge id=":BA-WE_14" function="internal">
        <lane id=":BA-WE_14_0" index="0" disallow="tram rail_urban rail rail_electric rail_fast ship" speed="8.99" length="9.92" shape="568.30,557.65 568.48,557.86 569.59,561.95 569.50,567.35"/>
    </edge>
    <edge id=":BA-WE_9" function="internal">
        <lane id=":BA-WE_9_0" index="0" disallow="tram rail_urban rail rail_electric rail_fast ship" speed="7.69" length="12.26" shape="566.32,566.98 566.45,562.90 565.77,559.84 564.29,557.79 562.00,556.76"/>
    </edge>
    <edge id=":BA-WE_10" function="internal">
        <lane id=":BA-WE_10_0" index="0" disallow="tram rail_urban rail rail_electric rail_fast ship" speed="13.89" length="18.67" shape="566.32,566.98 566.91,562.70 567.74,557.76 568.73,552.84 569.79,548.65"/>
    </edge>
    <edge id=":BA-WE_11" function="internal">
        <lane id=":BA-WE_11_0" index="0" disallow="tram rail_urban rail rail_electric rail_fast ship" speed="9.02" length="10.68" shape="566.32,566.98 567.71,561.72 570.44,558.33 571.26,558.02"/>
    </edge>
    <edge id=":BA-WE_15" function="internal">
        <lane id=":BA-WE_15_0" index="0" disallow="tram rail_urban rail rail_electric rail_fast ship" speed="9.02" length="8.89" shape="571.26,558.02 574.51,556.80 579.92,557.13"/>
    </edge>
    <edge id=":BA-WO_0" function="internal">
        <lane id=":BA-WO_0_0" index="0" disallow="tram rail_urban rail rail_electric rail_fast ship" speed="6.48" length="9.03" shape="551.90,769.18 549.42,769.22 547.56,770.05 546.32,771.67 545.70,774.07"/>
    </edge>
    <edge id=":BA-WO_1" function="internal">
        <lane id=":BA-WO_1_0" index="0" disallow="tram rail_urban rail rail_electric rail_fast ship" speed="8.33" length="14.45" shape="551.90,769.18 537.56,767.43"/>
    </edge>
    <edge id=":BA-WO_2" function="internal">
        <lane id=":BA-WO_2_0" index="0" disallow="tram rail_urban rail rail_electric rail_fast ship" speed="8.04" length="14.25" shape="551.90,769.18 548.13,768.15 545.58,766.17 544.25,763.23 544.15,759.34"/>
    </edge>
    <edge id=":BA-WO_3" function="internal">
        <lane id=":BA-WO_3_0" index="0" disallow="tram rail_urban rail rail_electric rail_fast ship" speed="6.56" length="9.13" shape="547.33,759.71 547.39,762.20 548.25,764.08 549.88,765.34 552.30,766.00"/>
    </edge>
    <edge id=":BA-WO_4" function="internal">
        <lane id=":BA-WO_4_0" index="0" disallow="tram rail_urban rail rail_electric rail_fast ship" speed="13.89" length="14.45" shape="547.33,759.71 545.70,774.07"/>
    </edge>
    <edge id=":BA-WO_5" function="internal">
        <lane id=":BA-WO_5_0" index="0" disallow="tram rail_urban rail rail_electric rail_fast ship" speed="8.00" length="5.90" shape="547.33,759.71 546.34,763.48 545.11,765.07"/>
    </edge>
    <edge id=":BA-WO_12" function="internal">
        <lane id=":BA-WO_12_0" index="0" disallow="tram rail_urban rail rail_electric rail_fast ship" speed="8.00" length="8.30" shape="545.11,765.07 544.38,766.02 541.45,767.34 537.56,767.43"/>
    </edge>
    <edge id=":BA-WO_6" function="internal">
        <lane id=":BA-WO_6_0" index="0" disallow="tram rail_urban rail rail_electric rail_fast ship" speed="6.50" length="9.03" shape="537.94,764.25 540.41,764.19 542.27,763.35 543.52,761.74 544.15,759.34"/>
    </edge>
    <edge id=":BA-WO_7" function="internal">
        <lane id=":BA-WO_7_0" index="0" disallow="tram rail_urban rail rail_electric rail_fast ship" speed="8.33" length="14.47" shape="537.94,764.25 552.30,766.00"/>
    </edge>
    <edge id=":BA-WO_8" function="internal">
        <lane id=":BA-WO_8_0" index="0" disallow="tram rail_urban rail rail_electric rail_fast ship" speed="8.04" length="14.25" shape="537.94,764.25 541.70,765.25 544.25,767.22 545.58,770.16 545.70,774.07"/>
    </edge>
    <edge id=":BA-WO_9" function="internal">
        <lane id=":BA-WO_9_0" index="0" disallow="tram rail_urban rail rail_electric rail_fast ship" speed="6.55" length="9.12" shape="542.52,773.72 542.45,771.21 541.59,769.33 539.97,768.07 537.56,767.43"/>
    </edge>
    <edge id=":BA-WO_10" function="internal">
        <lane id=":BA-WO_10_0" index="0" disallow="tram rail_urban rail rail_electric rail_fast ship" speed="13.89" length="14.46" shape="542.52,773.72 544.15,759.34"/>
    </edge>
    <edge id=":BA-WO_11" function="internal">
        <lane id=":BA-WO_11_0" index="0" disallow="tram rail_urban rail rail_electric rail_fast ship" speed="7.98" length="5.96" shape="542.52,773.72 543.50,769.93 544.75,768.31"/>
    </edge>
    <edge id=":BA-WO_13" function="internal">
        <lane id=":BA-WO_13_0" index="0" disallow="tram rail_urban rail rail_electric rail_fast ship" speed="7.98" length="8.29" shape="544.75,768.31 545.45,767.38 548.39,766.07 552.30,766.00"/>
    </edge>
    <edge id=":BA1-HE_0" function="internal">
        <lane id=":BA1-HE_0_0" index="0" disallow="tram rail_urban rail rail_electric rail_fast ship" speed="13.89" length="0.35" shape="527.98,943.33 527.94,943.68"/>
    </edge>
    <edge id=":BA1-HE_1" function="internal">
        <lane id=":BA1-HE_1_0" index="0" disallow="tram rail_urban rail rail_electric rail_fast ship" speed="13.89" length="0.22" shape="521.59,942.86 521.61,942.67"/>
        <lane id=":BA1-HE_1_1" index="1" disallow="tram rail_urban rail rail_electric rail_fast ship" speed="13.89" length="0.22" shape="524.76,943.27 524.79,943.00"/>
    </edge>
    <edge id=":BA98_0" function="internal">
        <lane id=":BA98_0_0" index="0" disallow="tram rail_urban rail rail_electric rail_fast ship" speed="3.65" length="4.67" shape="522.08,988.83 521.13,989.91 520.28,990.21 519.54,989.71 518.90,988.41"/>
    </edge>
    <edge id=":BA99_0" function="internal">
        <lane id=":BA99_0_0" index="0" disallow="tram rail_urban rail rail_electric rail_fast ship" speed="3.65" length="4.67" shape="613.00,398.52 614.10,397.59 614.98,397.42 615.64,398.02 616.08,399.40"/>
    </edge>
    <edge id=":BAj34_0" function="internal">
        <lane id=":BAj34_0_0" index="0" disallow="tram rail_urban rail rail_electric rail_fast ship" speed="13.89" length="12.25" shape="538.10,842.93 538.25,846.07 539.07,848.61 539.86,851.37 539.96,855.18"/>
        <lane id=":BAj34_0_1" index="1" disallow="tram rail_urban rail rail_electric rail_fast ship" speed="13.89" length="12.25" shape="538.10,842.93 536.78,854.85"/>
    </edge>
    <edge id=":BAj34_2" function="internal">
        <lane id=":BAj34_2_0" index="0" disallow="tram rail_urban rail rail_electric rail_fast ship" speed="13.89" length="12.02" shape="533.60,854.53 534.92,842.57"/>
    </edge>
    <edge id=":BAj45_0" function="internal">
        <lane id=":BAj45_0_0" index="0" disallow="tram rail_urban rail rail_electric rail_fast ship" speed="13.89" length="0.15" shape="536.78,886.93 536.77,887.08"/>
        <lane id=":BAj45_0_1" index="1" disallow="tram rail_urban rail rail_electric rail_fast ship" speed="13.89" length="0.15" shape="533.60,886.62 533.58,886.77"/>
    </edge>
    <edge id=":BAj45_2" function="internal">
        <lane id=":BAj45_2_0" index="0" disallow="tram rail_urban rail rail_electric rail_fast ship" speed="3.65" length="2.34" shape="533.60,886.62 532.68,887.73 531.85,888.05"/>
    </edge>
    <edge id=":BAj45_5" function="internal">
        <lane id=":BAj45_5_0" index="0" disallow="tram rail_urban rail rail_electric rail_fast ship" speed="3.65" length="2.34" shape="531.85,888.05 531.09,887.58 530.41,886.30"/>
    </edge>
    <edge id=":BAj45_3" function="internal">
        <lane id=":BAj45_3_0" index="0" disallow="tram rail_urban rail rail_electric rail_fast ship" speed="13.89" length="0.15" shape="530.40,886.45 530.41,886.30"/>
    </edge>
    <edge id=":BAj45_4" function="internal">
        <lane id=":BAj45_4_0" index="0" disallow="tram rail_urban rail rail_electric rail_fast ship" speed="3.65" length="2.34" shape="530.40,886.45 531.31,885.34 532.15,885.02"/>
    </edge>
    <edge id=":BAj45_6" function="internal">
        <lane id=":BAj45_6_0" index="0" disallow="tram rail_urban rail rail_electric rail_fast ship" speed="3.65" length="2.34" shape="532.15,885.02 532.90,885.49 533.58,886.77"/>