<?xml version="1.0" encoding="UTF-8"?>

<!-- generated on 2021-07-06 22:35:04 by Eclipse SUMO duarouter Version 1.9.2
<configuration xmlns:xsi="http://www.w3.org/2001/XMLSchema-instance" xsi:noNamespaceSchemaLocation="http://sumo.dlr.de/xsd/duarouterConfiguration.xsd">

    <input>
        <net-file value="kassberg.net.xml"/>
        <route-files value="trips.trips.xml"/>
    </input>

    <output>
        <output-file value="rndRoute.rou.xml"/>
        <alternatives-output value="rndRoute.rou.alt.xml"/>
    </output>

    <time>
        <begin value="0"/>
        <end value="1000"/>
    </time>

    <report>
        <no-warnings value="true"/>
        <ignore-errors value="true"/>
        <no-step-log value="true"/>
    </report>

</configuration>
-->

<routes xmlns:xsi="http://www.w3.org/2001/XMLSchema-instance" xsi:noNamespaceSchemaLocation="http://sumo.dlr.de/xsd/routes_file.xsd">

   <vType id="regular2"
            vClass="passenger" accel="2.9" decel="7.5"
            sigma="1.0" carFollowModel="Krauss" minGap="2.50" color="blue" tau="2.0">
            <param key="has.driverstate.device" value="True" />
    </vType>

    <vType id="connected2"
            vClass="passenger" accel="2.9" decel="7.5"
            sigma="0.0" carFollowModel="Krauss" minGap="1.00" color="red" >
    </vType>

    <vehicle id="0" depart="0.00" type="regular2">
        <route edges="FM4 FM5 HE1 HE2 HE3 -BA5 -BA4 -BA3 -BA2 WE7 WE8 WE9 WE10 -AN0"/>
    </vehicle>
    <vehicle id="1" depart="1.00" type="regular2">
        <route edges="-KA3 -HE6 -HE5 HE-4 -HE3 -HE2 -HE1 -HE0 -HM4"/>
    </vehicle>
    <trip id="2" depart="2.00" from="HU0" to="GL1" type="connected2"/>

    <vehicle id="3" depart="3.00" type="regular2">
        <route edges="WE0 WE1 WE2 WE3 WE4 WE5 WE6 BA2 BA3 BA4 -BA4"/>
    </vehicle>
    <vehicle id="4" depart="4.00" type="regular2">
        <route edges="-WE17 -WE16 -WE15 -WE14 -WE13 -WE12 -WE11 -AN0"/>
    </vehicle>
    <trip id="5" depart="5.00" from="-HM3" to="BA3" type="connected2"/>

    <vehicle id="6" depart="6.00" type="regular2">
        <route edges="-BA6 -BA5 -BA4 -BA3 -BA2 -WE6 -WE5 -WE4 -WE3 -WE2 -WE1 -HM0"/>
    </vehicle>
    <vehicle id="7" depart="7.00" type="regular2">
        <route edges="HE-4 BA6 BA7"/>
    </vehicle>
    <trip id="8" depart="8.00" from="-HM4" to="EM2" type="connected2"/>

    <vehicle id="9" depart="9.00" type="regular2">
        <route edges="KA0 -WE13 -WE12 -WE11 -AN0"/>
    </vehicle>
    <vehicle id="10" depart="10.00" type="regular2">
        <route edges="KA0 -WE13 -WE12 -WE11 -WE10 -WE9 -WE8 -WE7 -WE6 -WE5 -WE4 -WE3 FM1 FM2 FM3 FM4 FM5 HE1"/>
    </vehicle>
    <trip id="11" depart="11.00" from="-RE9" to="-GL0" type="connected2"/>

    <vehicle id="12" depart="12.00" type="regular2">
        <route edges="WE5 WE6 WE7 WE8 WE9 WE10 WE11 WE12 WE13 WE14 WE15 WE16 -RE1 -RE0"/>
    </vehicle>
    <vehicle id="13" depart="13.00" type="regular2">
        <route edges="-EM2 -EM1 -EM0"/>
    </vehicle>
    <trip id="14" depart="14.00" from="RE0" to="FM4" type="connected2"/>

    <vehicle id="15" depart="15.00" type="regular2">
        <route edges="KA0 -WE13 -WE12 -WE11 -WE10 -WE9 -WE8 -WE7 -WE6 -WE5 -WE4 -WE3 -WE2 -WE1 HM1 HM2 HM3"/>
    </vehicle>
    <vehicle id="16" depart="16.00" type="regular2">
        <route edges="BA0 BA1 -WE6 -WE5 -WE4 -WE3 -WE2 -WE1 HM1 HM2 WO0"/>
    </vehicle>
    <trip id="17" depart="17.00" from="-WE1" to="BA7" type="connected2"/>

    <vehicle id="18" depart="18.00" type="regular2">
        <route edges="RE0 RE1 -WE16 -WE15 -WE14 -WE13 -WE12 -WE11 -WE10 -WE9 -WE8 -WE7 BA2 BA3 BA4 BA5 -HE3 -HE2 -HE1 FM6"/>
    </vehicle>
    <vehicle id="19" depart="19.00" type="regular2">
        <route edges="RE4 RE5 RE6 RE7 RE8 HE-8 HE-7 -HE6 -HE5 HE-4 -HE3 -HE2 EM1 EM2"/>
    </vehicle>
    <trip id="20" depart="20.00" from="HM0" to="-BA0" type="connected2"/>

    <vehicle id="21" depart="21.00" type="regular2">
        <route edges="-HM5 -HM4 -HM3 -HM2 -HM1 WE1 WE2 WE3 WE4 WE5 WE6 WE7 WE8 WE9 WE10 WE11 WE12 WE13 -KA0"/>
    </vehicle>
    <vehicle id="22" depart="22.00" type="regular2">
        <route edges="-EM2 -EM1 -EM0 WO2 -HU2 -HU1 -HU0"/>
    </vehicle>
    <trip id="23" depart="23.00" from="-EM2" to="-KA0" type="connected2"/>

    <vehicle id="24" depart="24.00" type="regular2">
        <route edges="FM3 WO1 WO2 WO3 WO4 BA3 BA4 BA5 HE4 HE5 HE6 HE7 HE8 -RE8"/>
    </vehicle>
    <vehicle id="25" depart="25.00" type="regular2">
        <route edges="-TL0 -HM1 -HM0"/>
    </vehicle>
    <trip id="26" depart="26.00" from="-KA1" to="WE17" type="connected2"/>

    <vehicle id="27" depart="27.00" type="regular2">
        <route edges="HE-4 -BA5 -BA4 -BA3 -WO4 -WO3 -WO2 -WO1 FM4 FM5"/>
    </vehicle>
    <vehicle id="28" depart="28.00" type="regular2">
        <route edges="-GL1 -HE2 -EM0 -WO1 -WO0 HM3"/>
    </vehicle>
    <trip id="29" depart="29.00" from="-GL1" to="-WE0" type="connected2"/>

    <vehicle id="30" depart="30.00" type="regular2">
        <route edges="WO4 BA3 BA4 BA5 -HE3 -HE2 -HE1 FM6"/>
    </vehicle>
    <vehicle id="31" depart="31.00" type="regular2">
        <route edges="BA0 BA1 BA2 WO5 AN2 -HE5 HE-4"/>
    </vehicle>
    <trip id="32" depart="32.00" from="RE0" to="HU2" type="connected2"/>

    <vehicle id="33" depart="33.00" type="regular2">
        <route edges="-HM5 -HM4 -HM3 -HM2 -HM1 WE1 WE2 WE3 WE4 WE5 WE6 WE7 WE8 WE9 WE10 -AN0"/>
    </vehicle>
    <vehicle id="34" depart="34.00" type="regular2">
        <route edges="-RE4 -RE3 -RE2 -WE16 -WE15 -WE14 -KA0"/>
    </vehicle>
    <trip id="35" depart="35.00" from="-HM1" to="WE17" type="connected2"/>

    <vehicle id="36" depart="36.00" type="regular2">
        <route edges="RE8 RE9 -RE9 -RE8 -RE7 -RE6 -RE5 -RE4 -RE3 -RE2 -RE1 -RE0"/>
    </vehicle>
    <vehicle id="37" depart="37.00" type="regular2">
        <route edges="HE-8 HE-7 -HE6 -HE5 HE-4 -BA5 -BA4 -BA3 -BA2 -WE6 -WE5 -WE4 -WE3 -WE2 -WE1 -WE0"/>
    </vehicle>
    <trip id="38" depart="38.00" from="WE0" to="-WE8" type="connected2"/>

    <vehicle id="39" depart="39.00" type="regular2">
        <route edges="-KA1 -WE13 -WE12 -WE11 -WE10 -WE9 -WE8 -WE7 -WE6 -WE5 -HU0"/>
    </vehicle>
    <vehicle id="40" depart="40.00" type="regular2">
        <route edges="BA0 BA1 BA2 -WO4 -WO3 -HU2"/>
    </vehicle>
    <trip id="41" depart="41.00" from="BA6" to="WE12" type="connected2"/>

    <vehicle id="42" depart="42.00" type="regular2">
        <route edges="-WE15 -WE14 -WE13 -WE12 -WE11 -WE10 -WE9 -WE8 -WE7 -WE6 -WE5 -WE4 -WE3 FM1 FM2 FM3 FM4 -RM0 -HM3"/>
    </vehicle>
    <vehicle id="43" depart="43.00" type="regular2">
        <route edges="WO7 -RE5 -RE4 -RE3 -RE2 -WE16 -WE15 -WE14 -WE13 -WE12 -WE11 -WE10 -WE9 -WE8 -WE7 BA2 BA3 BA4"/>
    </vehicle>
    <trip id="44" depart="44.00" from="-EM2" to="-BA0" type="connected2"/>

    <vehicle id="45" depart="45.00" type="regular2">
        <route edges="-FM3 -TL0 HM2 WO0 FM4 FM5 FM6"/>
    </vehicle>
    <vehicle id="46" depart="46.00" type="regular2">
        <route edges="KA0 -WE13 -WE12"/>
    </vehicle>
    <trip id="47" depart="47.00" from="-EM0" to="-WE0" type="connected2"/>

    <vehicle id="48" depart="48.00" type="regular2">
        <route edges="WO6 KA2 -HE6 -HE5 HE-4 BA6 BA7"/>
    </vehicle>
    <vehicle id="49" depart="49.00" type="regular2">
        <route edges="WE9 WE10 WE11 WE12 WE13 WE14 WE15 WE16 RE2 RE3 RE4 RE5 RE6 RE7 RE8 RE9"/>
    </vehicle>
    <trip id="50" depart="50.00" from="-BA2" to="HE8" type="connected2"/>

    <vehicle id="51" depart="51.00" type="regular2">
        <route edges="HE7 HE8 RE9 -RE9 HE-8 HE-7 -HE6 -HE5 HE-4 BA6 BA7"/>
    </vehicle>
    <vehicle id="52" depart="52.00" type="regular2">
        <route edges="-KA1 -WE13 -WE12 -WE11 -WE10 -WE9 -WE8 -WE7 BA2 BA3 BA4 BA5 -HE3 -HE2 -HE1 FM6"/>
    </vehicle>
    <trip id="53" depart="53.00" from="-FM3" to="-WE16" type="connected2"/>

    <vehicle id="54" depart="54.00" type="regular2">
        <route edges="-WE6 -WE5 -WE4 -WE3 -FM0 FM0 WE3 WE4"/>
    </vehicle>
    <vehicle id="55" depart="55.00" type="regular2">
        <route edges="RE8 HE-8 HE-7 -HE6 -HE5 HE-4 -BA5 -BA4 -BA3 -WO4 -WO3 -HU2"/>
    </vehicle>
    <trip id="56" depart="56.00" from="AN0" to="-HM0" type="connected2"/>

    <vehicle id="57" depart="57.00" type="regular2">
        <route edges="WE0 WE1 WE2 WE3 WE4 WE5 WE6 WE7 WE8 WE9 WE10 WE11 WE12 WE13 WE14 WE15 WE16 RE2 RE3 RE4 RE5 RE6 RE7 RE8 RE9"/>
    </vehicle>
    <vehicle id="58" depart="58.00" type="regular2">
        <route edges="-KA3 -HE6 -HE5 HE-4 -HE3 -HE2 -HE1 FM6"/>
    </vehicle>
    <trip id="59" depart="59.00" from="FM0" to="-GL0" type="connected2"/>

    <vehicle id="60" depart="60.00" type="regular2">
        <route edges="HU0 WE5 WE6 BA2 BA3 BA4 BA5 BA6 BA7"/>
    </vehicle>
    <vehicle id="61" depart="61.00" type="regular2">
        <route edges="KA0 -WE13 -WE12 -WE11 -WE10 -WE9 -WE8 -WE7 BA2 BA3 BA4 BA5 BA6 BA7"/>
    </vehicle>
    <trip id="62" depart="62.00" from="-AN1" to="-RE0" type="connected2"/>

    <vehicle id="63" depart="63.00" type="regular2">
        <route edges="-BA4 -BA3 -BA2 WE7 WE8 WE9 WE10 WE11 WE12 WE13 WE14 WE15 WE16 WE17"/>
    </vehicle>
    <vehicle id="64" depart="64.00" type="regular2">
        <route edges="TL0 -FM2 -FM1 WE3 WE4 WE5 WE6 WE7 WE8 WE9 WE10 WE11 WE12 WE13 WE14 WE15 WE16 RE2 RE3 RE4 RE5"/>
    </vehicle>
    <trip id="65" depart="65.00" from="-RE1" to="-BA0" type="connected2"/>

    <vehicle id="66" depart="66.00" type="regular2">
        <route edges="TL0 -FM2 -FM1 -WE2 -WE1 -WE0 WE0 WE1 WE2"/>
    </vehicle>
    <vehicle id="67" depart="67.00" type="regular2">
        <route edges="-EM2 -EM1 HE2 HE3 HE4 HE5 HE6 -KA2 -WO6"/>
    </vehicle>
    <trip id="68" depart="68.00" from="-EM2" to="HM5" type="connected2"/>

    <vehicle id="69" depart="69.00" type="regular2">
        <route edges="HU0 -WE4 -WE3 -FM0"/>
    </vehicle>
    <vehicle id="70" depart="70.00" type="regular2">
        <route edges="-WO3 -WO2 EM0 HE2 HE3 BA6 BA7"/>
    </vehicle>
    <trip id="71" depart="71.00" from="-KA1" to="RE9" type="connected2"/>

    <vehicle id="72" depart="72.00" type="regular2">
        <route edges="-WE17 -WE16 -WE15 -WE14 -WE13 -WE12 -WE11 -WE10 -WE9 -WE8 -WE7 -WE6 -WE5 -WE4 -WE3 FM1 FM2 -TL0 -HM1"/>
    </vehicle>
    <vehicle id="73" depart="73.00" type="regular2">
        <route edges="BA0 BA1 -WE6 -WE5 -WE4 -WE3 -WE2 -WE1 HM1 HM2 HM3"/>
    </vehicle>
    <trip id="74" depart="74.00" from="-HE3" to="-RE0" type="connected2"/>

    <vehicle id="75" depart="75.00" type="regular2">
        <route edges="WO6 KA2 -HE6 -HE5 HE-4 -HE3 GL1"/>
    </vehicle>
    <vehicle id="76" depart="76.00" type="regular2">
        <route edges="-WE2 -WE1 -WE0 WE0 WE1 WE2 WE3 WE4 WE5 WE6 BA2 BA3 BA4 BA5 BA6"/>
    </vehicle>
    <trip id="77" depart="77.00" from="-FM6" to="-HU0" type="connected2"/>

    <vehicle id="78" depart="78.00" type="regular2">
        <route edges="-RE9 HE-8 HE-7 -HE6 -HE5 HE-4 -HE3 -HE2 EM1 EM2"/>
    </vehicle>
    <vehicle id="79" depart="79.00" type="regular2">
        <route edges="-HM5 -HM4 -HM3"/>
    </vehicle>
    <trip id="80" depart="80.00" from="-EM2" to="FM6" type="connected2"/>

    <vehicle id="81" depart="81.00" type="regular2">
        <route edges="-HM5 -HM4 -HM3 -HM2 -HM1 WE1 WE2 WE3 WE4 WE5 WE6 WE7 WE8 WE9 WE10 WE11 WE12 WE13 WE14 WE15"/>
    </vehicle>
    <vehicle id="82" depart="82.00" type="regular2">
        <route edges="RE3 RE4 RE5 RE6 RE7 RE8 RE9 -RE9 -RE8 -RE7 -RE6 -RE5 -RE4 -RE3 -RE2 -WE16 -WE15 -WE14 -WE13 -WE12 -WE11 -WE10 -WE9 -WE8 -WE7 -BA1 -BA0"/>
    </vehicle>
    <trip id="83" depart="83.00" from="-HM5" to="GL1" type="connected2"/>

    <vehicle id="84" depart="84.00" type="regular2">
        <route edges="-HM2 -HM1 WE1 WE2 -FM0"/>
    </vehicle>
    <vehicle id="85" depart="85.00" type="regular2">
        <route edges="WE13 KA1 -WO6 -WO5 BA3 BA4 BA5 -HE3 -HE2 EM1 EM2"/>
    </vehicle>
    <trip id="86" depart="86.00" from="-WO2" to="KA3" type="connected2"/>

    <vehicle id="87" depart="87.00" type="regular2">
        <route edges="KA0 -WE13 -WE12 -WE11 -WE10 -WE9 -WE8 -WE7 -WE6 -WE5 -WE4 -WE3 -WE2 -WE1 -HM0"/>
    </vehicle>
    <vehicle id="88" depart="88.00" type="regular2">
        <route edges="-EM2 -EM1 HE2 HE3 -BA5 -BA4 -BA3 -BA2 WE7 WE8 WE9 WE10 WE11 WE12 WE13 WE14 WE15 WE16 WE17 -WE17 -WE16 -WE15"/>
    </vehicle>
    <trip id="89" depart="89.00" from="-WE17" to="-WO0" type="connected2"/>

    <vehicle id="90" depart="90.00" type="regular2">
        <route edges="HM3 HM4 HE0 HE1 HE2 GL1"/>
    </vehicle>
    <vehicle id="91" depart="91.00" type="regular2">
        <route edges="WO3 GL0 -HE2 EM1 -EM1"/>
    </vehicle>
    <trip id="92" depart="92.00" from="-WE16" to="-RE1" type="connected2"/>

    <vehicle id="93" depart="93.00" type="regular2">
        <route edges="RE4 RE5 RE6 RE7 RE8 RE9 -RE9 -RE8 -RE7 -RE6 -RE5 -RE4 -RE3 -RE2 -WE16 -WE15 -WE14 -WE13 -WE12 -WE11 -WE10 -WE9 -WE8 -WE7 -WE6 -WE5 -HU0"/>
    </vehicle>
    <vehicle id="94" depart="94.00" type="regular2">
        <route edges="-HE0 -HM4 -HM3 WO0 WO1 WO2 WO3 WO4 -BA2 -WE6 -WE5"/>
    </vehicle>
    <trip id="95" depart="95.00" from="-WE17" to="-KA0" type="connected2"/>

    <vehicle id="96" depart="96.00" type="regular2">
        <route edges="-HM5 -HM4 -HM3 -HM2 -HM1 WE1 WE2 WE3 WE4 WE5 WE6 WE7 WE8 WE9 WE10 WE11 WE12 WE13 WE14 WE15 WE16 WE17"/>
    </vehicle>
    <vehicle id="97" depart="97.00" type="regular2">
        <route edges="-WE3 -FM0 FM0 WE3 WE4 WE5 WE6 WE7 WE8 WE9 WE10 WE11 WE12 WE13 WE14 WE15 WE16 RE2 RE3 RE4 RE5 RE6 RE7 RE8 RE9"/>
    </vehicle>
    <trip id="98" depart="98.00" from="BA0" to="-BA0" type="connected2"/>

    <vehicle id="99" depart="99.00" type="regular2">
        <route edges="WO7 -RE5 -RE4 -RE3 -RE2 WE17 -WE17 RE2 RE3 RE4 RE5 RE6"/>
    </vehicle>
    <vehicle id="100" depart="100.00" type="regular2">
        <route edges="WE8 WE9 WE10 WE11 WE12 WE13 WE14 WE15 WE16 WE17"/>
    </vehicle>
    <trip id="101" depart="101.00" from="RE0" to="-HE3" type="connected2"/>

    <vehicle id="102" depart="102.00" type="regular2">
        <route edges="-WO6 -WO5 -WO4 -WO3 -WO2 -WO1 -WO0 -HM2"/>
    </vehicle>
    <vehicle id="103" depart="103.00" type="regular2">
        <route edges="-WE16 -WE15 -WE14 -WE13 -WE12 -WE11 -WE10 -WE9 -WE8 -WE7 -BA1 -BA0"/>
    </vehicle>
    <trip id="104" depart="104.00" from="-WE1" to="WO3" type="connected2"/>

    <vehicle id="105" depart="105.00" type="regular2">
        <route edges="-KA1 WE14 WE15 WE16 RE2 RE3 RE4 RE5 RE6 RE7 RE8 HE-8 HE-7 KA3"/>
    </vehicle>
    <vehicle id="106" depart="106.00" type="regular2">
        <route edges="-WE7 BA2 WO5 WO6 -KA1 -WE13 -WE12"/>
    </vehicle>
    <trip id="107" depart="107.00" from="WE5" to="WO6" type="connected2"/>

    <vehicle id="108" depart="108.00" type="regular2">
        <route edges="BA0 BA1 BA2 BA3 BA4 BA5 HE4 HE5 HE6 HE7"/>
    </vehicle>
    <vehicle id="109" depart="109.00" type="regular2">
        <route edges="-GL0 WO4 -BA2 WE7 WE8 WE9 WE10 WE11 WE12 WE13 -KA0"/>
    </vehicle>
    <trip id="110" depart="110.00" from="WE8" to="EM2" type="connected2"/>

    <vehicle id="111" depart="111.00" type="regular2">
        <route edges="BA0 BA1 -WE6 -WE5 -WE4 -WE3 -WE2 -WE1 HM1 HM2 HM3 HM4 HM5"/>
    </vehicle>
    <vehicle id="112" depart="112.00" type="regular2">
        <route edges="-BA7 -BA6 -HE3 -HE2 EM1 EM2"/>
    </vehicle>
    <trip id="113" depart="113.00" from="AN0" to="RE9" type="connected2"/>

    <vehicle id="114" depart="114.00" type="regular2">
        <route edges="-GL1 -GL0 -WO3 -HU2 -HU1 WE5 WE6"/>
    </vehicle>
    <vehicle id="115" depart="115.00" type="regular2">
        <route edges="-EM2 -EM1 -EM0 -WO1 -FM3 -FM2 -FM1 -WE2 -WE1 -HM0"/>
    </vehicle>
    <trip id="116" depart="116.00" from="FM0" to="GL1" type="connected2"/>

    <vehicle id="117" depart="117.00" type="regular2">
        <route edges="-HM5 -HM4 -HM3 -HM2 -HM1 WE1 WE2 -FM0"/>
    </vehicle>
    <vehicle id="118" depart="118.00" type="regular2">
        <route edges="WE0 WE1 WE2 WE3 WE4 -HU0"/>
    </vehicle>
    <trip id="119" depart="119.00" from="FM0" to="FM6" type="connected2"/>

    <vehicle id="120" depart="120.00" type="regular2">
        <route edges="-WE17 -WE16 -WE15 -WE14 -WE13 -WE12 -WE11 -WE10 -WE9 -WE8 -WE7 BA2 BA3 BA4 BA5 -HE3 -HE2 EM1 EM2"/>
    </vehicle>
    <vehicle id="121" depart="121.00" type="regular2">
        <route edges="AN0 WE11 WE12 WE13 WE14 WE15 WE16 WE17"/>
    </vehicle>
    <trip id="122" depart="122.00" from="-HE5" to="HE7" type="connected2"/>

    <vehicle id="123" depart="123.00" type="regular2">
        <route edges="-HM5 -HM4 -HM3 -HM2 -HM1 -WE0"/>
    </vehicle>
    <vehicle id="124" depart="124.00" type="regular2">
        <route edges="HE4 HE5 HE6 -KA2 -KA1"/>
    </vehicle>
    <trip id="125" depart="125.00" from="-RE4" to="HM5" type="connected2"/>

    <vehicle id="126" depart="126.00" type="regular2">
        <route edges="-EM2 -EM1 HE2 HE3 -BA5 -BA4 -BA3 WO5 -AN1 -WE10 -WE9 -WE8"/>
    </vehicle>
    <vehicle id="127" depart="127.00" type="regular2">
        <route edges="WO7 -RE5 -RE4 -RE3 -RE2 -WE16 -WE15 -WE14 -WE13 -WE12 -WE11 AN1 WO6"/>
    </vehicle>
    <trip id="128" depart="128.00" from="-EM2" to="-HM1" type="connected2"/>

    <vehicle id="129" depart="129.00" type="regular2">
        <route edges="-KA1 WE14 WE15 WE16 WE17"/>
    </vehicle>
    <vehicle id="130" depart="130.00" type="regular2">
        <route edges="TL0"/>
    </vehicle>
    <trip id="131" depart="131.00" from="-TL0" to="-HE0" type="connected2"/>

    <vehicle id="132" depart="132.00" type="regular2">
        <route edges="RE0 RE1 -WE16 -WE15 -WE14 -WE13 -WE12 -WE11 -WE10 -WE9 -WE8 -WE7 BA2 -WO4 GL0 HE3"/>
    </vehicle>
    <vehicle id="133" depart="133.00" type="regular2">
        <route edges="FM0 WE3 WE4 HU1 HU2 WO3 WO4"/>
    </vehicle>
    <trip id="134" depart="134.00" from="HE-7" to="-AN0" type="connected2"/>

    <vehicle id="135" depart="135.00" type="regular2">
        <route edges="RE0 RE1 RE2 RE3 RE4 RE5 RE6 RE7 RE8 RE9 -RE9 -RE8 -RE7 -RE6 -WO7 -KA1"/>
    </vehicle>
    <vehicle id="136" depart="136.00" type="regular2">
        <route edges="HE1 HE2 HE3 -BA5 -BA4 -BA3 -BA2 WE7 WE8 WE9 WE10 WE11 WE12 WE13 WE14 WE15 WE16 WE17"/>
    </vehicle>
    <trip id="137" depart="137.00" from="-FM6" to="-FM0" type="connected2"/>

    <vehicle id="138" depart="138.00" type="regular2">
        <route edges="-FM2 -FM1 WE3 WE4 HU1 HU2 -WO2 EM0"/>
    </vehicle>
    <vehicle id="139" depart="139.00" type="regular2">
        <route edges="-KA3 -HE6 -HE5 HE-4 -BA5 -BA4 -BA3 -WO4 -WO3 -WO2 -WO1 FM4"/>
    </vehicle>
    <trip id="140" depart="140.00" from="HM0" to="-HM0" type="connected2"/>

    <vehicle id="141" depart="141.00" type="regular2">
        <route edges="FM3 WO1 WO2 -HU2"/>
    </vehicle>
    <vehicle id="142" depart="142.00" type="regular2">
        <route edges="-WO7 -KA1 WE14 WE15"/>
    </vehicle>
    <trip id="143" depart="143.00" from="RE0" to="-BA6" type="connected2"/>

    <vehicle id="144" depart="144.00" type="regular2">
        <route edges="-WE17 -WE16 -WE15 -WE14 -KA0"/>
    </vehicle>
    <vehicle id="145" depart="145.00" type="regular2">
        <route edges="-AN2 -WO5 -BA2 -WE6 -WE5 HU1"/>
    </vehicle>
    <trip id="146" depart="146.00" from="FM3" to="-HU2" type="connected2"/>

    <vehicle id="147" depart="147.00" type="regular2">
        <route edges="HU0 WE5 WE6 BA2 BA3 BA4 BA5 BA6 BA7"/>
    </vehicle>
    <vehicle id="148" depart="148.00" type="regular2">
        <route edges="-WE17 -WE16 -WE15 -WE14 -WE13 -WE12 -WE11 -AN0"/>
    </vehicle>
    <trip id="149" depart="149.00" from="-EM2" to="TL1" type="connected2"/>

    <vehicle id="150" depart="150.00" type="regular2">
        <route edges="WE0 WE1 WE2 WE3 WE4 WE5 WE6 BA2 BA3 BA4 BA5 BA6 BA7"/>
    </vehicle>
    <vehicle id="151" depart="151.00" type="regular2">
        <route edges="RE0 RE1 -WE16 -WE15 -WE14 -WE13 -WE12 -WE11 -WE10 -WE9 -WE8 -WE7 BA2 BA3 BA4 BA5 -HE3 -HE2 EM1 EM2"/>
    </vehicle>
    <trip id="152" depart="152.00" from="-FM6" to="-FM0" type="connected2"/>

    <vehicle id="153" depart="153.00" type="regular2">
        <route edges="-RE1 -RE0 RE0 RE1 -WE16 -WE15 -WE14 -WE13 -WE12 -WE11 -WE10 -WE9 -WE8 -WE7 -BA1 -BA0 BA0 BA1 WE7 WE8 WE9 WE10 WE11 WE12 WE13"/>
    </vehicle>
    <vehicle id="154" depart="154.00" type="regular2">
        <route edges="KA0 WE14 WE15 WE16 RE2 RE3 RE4 RE5 RE6 RE7 RE8 RE9"/>
    </vehicle>
    <trip id="155" depart="155.00" from="WE0" to="-HM0" type="connected2"/>

    <vehicle id="156" depart="156.00" type="regular2">
        <route edges="-HM5 -HM4 -HM3 -HM2 -HM1 WE1 WE2 -FM0"/>
    </vehicle>
    <vehicle id="157" depart="157.00" type="regular2">
        <route edges="KA0 -WE13 -WE12 -WE11 -WE10 -WE9 -WE8 -WE7 -WE6 -WE5 -WE4 -WE3 FM1 FM2 TL1"/>
    </vehicle>
    <trip id="158" depart="158.00" from="-WE17" to="FM6" type="connected2"/>

    <vehicle id="159" depart="159.00" type="regular2">
        <route edges="-GL0 WO4 -BA2 WE7 WE8 WE9 WE10 WE11 WE12 WE13 WE14 WE15 WE16 WE17"/>
    </vehicle>
    <vehicle id="160" depart="160.00" type="regular2">
        <route edges="RE5 RE6 RE7 RE8 RE9 -RE9 -RE8 -RE7 -RE6 -RE5 -RE4 -RE3 -RE2 -WE16 -WE15 -WE14 -WE13 -WE12 -WE11 -WE10 -WE9 -WE8 -WE7 -WE6 -WE5 -WE4 -WE3 -WE2 -WE1 HM1 HM2 WO0"/>
    </vehicle>
    <trip id="161" depart="161.00" from="KA1" to="TL1" type="connected2"/>

    <vehicle id="162" depart="162.00" type="regular2">
        <route edges="-BA6 -HE3 -HE2 -HE1 -HE0 HM5"/>
    </vehicle>
    <vehicle id="163" depart="163.00" type="regular2">
        <route edges="-RE8 -RE7 -RE6 -RE5 -RE4 -RE3 -RE2 WE17"/>
    </vehicle>
    <trip id="164" depart="164.00" from="KA0" to="RE9" type="connected2"/>

    <vehicle id="165" depart="165.00" type="regular2">
        <route edges="KA1 WO7 -RE5 -RE4 -RE3 -RE2 -WE16 -WE15 -WE14 -KA0"/>
    </vehicle>
    <vehicle id="166" depart="166.00" type="regular2">
        <route edges="KA0 -WE13 -WE12 -WE11 -WE10 -WE9 -WE8 -WE7 -WE6 -WE5 -WE4 -WE3 -FM0"/>
    </vehicle>
    <trip id="167" depart="167.00" from="RE7" to="RE9" type="connected2"/>

    <vehicle id="168" depart="168.00" type="regular2">
        <route edges="-HM4 -HM3 WO0 WO1 WO2 WO3 WO4 BA3 BA4 BA5 HE4 HE5 HE6 KA3"/>
    </vehicle>
    <vehicle id="169" depart="169.00" type="regular2">
        <route edges="-WE8 -WE7 -BA1 -BA0 BA0 BA1 WE7 WE8 WE9 WE10 WE11 WE12 WE13 WE14 WE15 WE16 -RE1 -RE0"/>
    </vehicle>
    <trip id="170" depart="170.00" from="KA0" to="-HU0" type="connected2"/>

    <vehicle id="171" depart="171.00" type="regular2">
        <route edges="-BA5 -BA4 -BA3 -BA2 -WE6 -WE5 -WE4 -WE3 -WE2 -WE1 -HM0"/>
    </vehicle>
    <vehicle id="172" depart="172.00" type="regular2">
        <route edges="-RE7 -RE6 -RE5 -RE4 -RE3 -RE2 WE17 -WE17 RE2 RE3 RE4 RE5 RE6 RE7 RE8 RE9"/>
    </vehicle>
    <trip id="173" depart="173.00" from="WE8" to="-KA0" type="connected2"/>

    <vehicle id="174" depart="174.00" type="regular2">
        <route edges="FM5 -HE0 -HM4 -HM3 -HM2 -HM1 -WE0"/>
    </vehicle>
    <vehicle id="175" depart="175.00" type="regular2">
        <route edges="WO2 WO3 WO4 BA3 BA4 BA5 BA6 BA7"/>
    </vehicle>
    <trip id="176" depart="176.00" from="WE15" to="-FM0" type="connected2"/>

    <vehicle id="177" depart="177.00" type="regular2">
        <route edges="WE9 WE10 AN1 -WO5 -BA2 -WE6 -WE5 -WE4 -WE3 -WE2 -WE1 -HM0"/>
    </vehicle>
    <vehicle id="178" depart="178.00" type="regular2">
        <route edges="WE6 WE7 WE8 WE9 WE10 WE11 WE12 WE13 -KA0"/>
    </vehicle>
    <trip id="179" depart="179.00" from="-FM2" to="-WE16" type="connected2"/>

    <vehicle id="180" depart="180.00" type="regular2">
        <route edges="HM2 WO0 -FM3 -FM2 -FM1 WE3 WE4 WE5 WE6 WE7 WE8 WE9 WE10 WE11 WE12 WE13 WE14 WE15 WE16 -RE1 -RE0"/>
    </vehicle>
    <vehicle id="181" depart="181.00" type="regular2">
        <route edges="FM0 WE3 WE4 WE5 WE6 BA2 BA3 BA4"/>
    </vehicle>
    <trip id="182" depart="182.00" from="-WE11" to="EM2" type="connected2"/>

    <vehicle id="183" depart="183.00" type="regular2">
        <route edges="-HM5 HE0 HE1 HE2 HE3 HE4 HE5"/>
    </vehicle>
    <vehicle id="184" depart="184.00" type="regular2">
        <route edges="-AN1 WE11 WE12 WE13 WE14 WE15 WE16 WE17"/>
    </vehicle>
    <trip id="185" depart="185.00" from="BA0" to="HE8" type="connected2"/>

    <vehicle id="186" depart="186.00" type="regular2">
        <route edges="HU0 WE5 WE6 BA2 BA3 BA4 BA5 -HE3 GL1"/>
    </vehicle>
    <vehicle id="187" depart="187.00" type="regular2">
        <route edges="-RE9 -RE8 -RE7 -RE6 -RE5 -RE4 -RE3 -RE2 -WE16 -WE15 -WE14 -WE13 -WE12 -WE11 -WE10 -WE9 -WE8 -WE7 -BA1 -BA0"/>
    </vehicle>
    <trip id="188" depart="188.00" from="HE1" to="-RE0" type="connected2"/>

    <vehicle id="189" depart="189.00" type="regular2">
        <route edges="-RE3 -RE2 WE17 -WE17 RE2 RE3 RE4 RE5 RE6 RE7 RE8 RE9"/>
    </vehicle>
    <vehicle id="190" depart="190.00" type="regular2">
        <route edges="HM0 WE1 WE2 WE3 WE4 WE5 WE6 BA2 WO5 WO6 -KA1"/>
    </vehicle>
    <trip id="191" depart="191.00" from="-RE2" to="-WE0" type="connected2"/>

    <vehicle id="192" depart="192.00" type="regular2">
        <route edges="-WE16 -WE15 -WE14 -KA0"/>
    </vehicle>
    <vehicle id="193" depart="193.00" type="regular2">
        <route edges="-FM6 HE1 HE2 HE3 -BA5 -BA4 -BA3 WO5 WO6 -KA1 -WE13 -WE12"/>
    </vehicle>
    <trip id="194" depart="194.00" from="WE15" to="GL1" type="connected2"/>

    <vehicle id="195" depart="195.00" type="regular2">
        <route edges="WE0 WE1 WE2 FM1 FM2 FM3 FM4 FM5 FM6"/>
    </vehicle>
    <vehicle id="196" depart="196.00" type="regular2">
        <route edges="-KA3 -HE6 -HE5 HE-4 BA6 BA7"/>
    </vehicle>
    <trip id="197" depart="197.00" from="-AN1" to="-KA0" type="connected2"/>

    <vehicle id="198" depart="198.00" type="regular2">
        <route edges="-WE17 -WE16 -WE15 -WE14 -WE13 -WE12 -WE11 -WE10 -WE9 -WE8 -WE7 BA2 BA3 BA4 BA5 -HE3 -HE2 EM1 EM2"/>
    </vehicle>
    <vehicle id="199" depart="199.00" type="regular2">
        <route edges="HE-8 HE-7 -HE6 -HE5 HE-4 -BA5 -BA4 -BA3 -WO4 -WO3 -WO2 -WO1 -WO0"/>
    </vehicle>
    <trip id="200" depart="200.00" from="-WE3" to="-HM2" type="connected2"/>

    <vehicle id="201" depart="201.00" type="regular2">
        <route edges="-WO2 -WO1 -FM3 -FM2 -FM1 WE3 WE4 WE5 WE6 WE7 WE8 WE9 WE10 WE11 WE12 WE13"/>
    </vehicle>
    <vehicle id="202" depart="202.00" type="regular2">
        <route edges="KA0 -WE13 -WE12 -WE11 AN1 AN2 -HE5"/>
    </vehicle>
    <trip id="203" depart="203.00" from="-EM2" to="BA6" type="connected2"/>

    <vehicle id="204" depart="204.00" type="regular2">
        <route edges="FM2 TL1 -HU1 WE5 WE6 WE7 WE8 WE9 WE10 WE11 WE12 WE13 WE14 WE15 WE16 -RE1 -RE0"/>
    </vehicle>
    <vehicle id="205" depart="205.00" type="regular2">
        <route edges="RE0 RE1 -WE16 -WE15 -WE14 -WE13 -WE12 -WE11 -WE10 -WE9 -WE8 -WE7 -WE6 -WE5 -WE4 -WE3 -WE2 -WE1 HM1 HM2 HM3 HM4 HM5"/>
    </vehicle>
    <trip id="206" depart="206.00" from="HE4" to="-HU0" type="connected2"/>

    <vehicle id="207" depart="207.00" type="regular2">
        <route edges="-HE2 EM1 -EM1 HE2 HE3 -BA5 -BA4 -BA3 -BA2 WE7 WE8 WE9 WE10 -AN0"/>
    </vehicle>
    <vehicle id="208" depart="208.00" type="regular2">
        <route edges="-HM5 HE0 HE1 HE2 -GL0 -WO3"/>
    </vehicle>
    <trip id="209" depart="209.00" from="RE0" to="-BA0" type="connected2"/>

    <vehicle id="210" depart="210.00" type="regular2">
        <route edges="-WE17 -WE16 -WE15 -WE14 -WE13 -WE12 -WE11 -WE10 -WE9 -WE8 -WE7 BA2 BA3 BA4 BA5 -HE3 -HE2 -HE1 FM6"/>
    </vehicle>
    <vehicle id="211" depart="211.00" type="regular2">
        <route edges="-HE1 FM6 -FM6 HE1"/>
    </vehicle>
    <trip id="212" depart="212.00" from="AN0" to="-HU0" type="connected2"/>

    <vehicle id="213" depart="213.00" type="regular2">
        <route edges="HE-8 HE-7 -KA2 -KA1 -WE13 -WE12 -WE11 -AN0"/>
    </vehicle>
    <vehicle id="214" depart="214.00" type="regular2">
        <route edges="HU0 HU1"/>
    </vehicle>
    <trip id="215" depart="215.00" from="-FM2" to="-WE13" type="connected2"/>

    <vehicle id="216" depart="216.00" type="regular2">
        <route edges="-GL1 -GL0 -WO3 -HU2 -HU1 WE5"/>
    </vehicle>
    <vehicle id="217" depart="217.00" type="regular2">
        <route edges="AN0 -WE10 -WE9 -WE8 -WE7 -BA1 -BA0"/>
    </vehicle>
    <trip id="218" depart="218.00" from="-HM5" to="RE9" type="connected2"/>

    <vehicle id="219" depart="219.00" type="regular2">
        <route edges="-WE7 BA2 BA3 BA4 BA5 HE4 HE5 HE6 KA3"/>
    </vehicle>
    <vehicle id="220" depart="220.00" type="regular2">
        <route edges="HE2 -GL0 WO4"/>
    </vehicle>
    <trip id="221" depart="221.00" from="FM0" to="WE3" type="connected2"/>

    <vehicle id="222" depart="222.00" type="regular2">
        <route edges="WE0 WE1 WE2 FM1 FM2 FM3 FM4 FM5 FM6"/>
    </vehicle>
    <vehicle id="223" depart="223.00" type="regular2">
        <route edges="HM0 WE1 WE2 WE3 WE4 WE5 WE6 BA2"/>
    </vehicle>
    <trip id="224" depart="224.00" from="RE0" to="BA7" type="connected2"/>

    <vehicle id="225" depart="225.00" type="regular2">
        <route edges="WE0 HM1 HM2 HM3 HM4 HM5"/>
    </vehicle>